/*---------------------------------------------------------------------------*\
| =========                 |                                                 |
| \\      /  F ield         | OpenFOAM: The Open Source CFD Toolbox           |
|  \\    /   O peration     | Version:  v1712                                 |
|   \\  /    A nd           | Web:      www.OpenFOAM.com                      |
|    \\/     M anipulation  |                                                 |
\*---------------------------------------------------------------------------*/
Build  : v1712
Arch   : "LSB;label=32;scalar=64"
Exec   : icoFoam -parallel
Date   : May 23 2018
Time   : 17:02:27
Host   : "n1"
PID    : 32017
I/O    : uncollated
Case   : /home/admceltab/OpenFOAM-v1712/tutorials/incompressible/icoFoam/cavityParallel/cavity/cavityParallel
nProcs : 16
Hosts  :
(
    (n1 4)
    (n2 4)
    (n3 4)
    (n4 4)
)
Pstream initialized with:
    floatTransfer      : 0
    nProcsSimpleSum    : 0
    commsType          : nonBlocking
    polling iterations : 0
trapFpe: Floating point exception trapping enabled (FOAM_SIGFPE).
fileModificationChecking : Monitoring run-time modified files using timeStampMaster (fileModificationSkew 10)
allowSystemOperations : Allowing user-supplied system call operations

// * * * * * * * * * * * * * * * * * * * * * * * * * * * * * * * * * * * * * //
Create time

Create mesh for time = 0


PISO: Operating solver in PISO mode

Reading transportProperties

Reading field p

Reading field U

Reading/calculating face flux field phi


Starting time loop

Time = 1e-05

Courant Number mean: 0 max: 0
smoothSolver:  Solving for Ux, Initial residual = 1, Final residual = 5.24761e-06, No Iterations 13
smoothSolver:  Solving for Uy, Initial residual = 0, Final residual = 0, No Iterations 0
DICPCG:  Solving for p, Initial residual = 1, Final residual = 0.245453, No Iterations 1001
time step continuity errors : sum local = 4.59131e-08, global = 1.8198e-23, cumulative = 1.8198e-23
DICPCG:  Solving for p, Initial residual = 0.588042, Final residual = 0.0737963, No Iterations 1001
time step continuity errors : sum local = 2.7844e-08, global = 4.21862e-23, cumulative = 6.03842e-23
ExecutionTime = 8.31 s  ClockTime = 11 s

Time = 2e-05

Courant Number mean: 0.000238846 max: 0.0573568
smoothSolver:  Solving for Ux, Initial residual = 0.230062, Final residual = 6.63264e-06, No Iterations 13
smoothSolver:  Solving for Uy, Initial residual = 0.329591, Final residual = 7.194e-06, No Iterations 14
DICPCG:  Solving for p, Initial residual = 0.502247, Final residual = 0.0250878, No Iterations 769
time step continuity errors : sum local = 1.12654e-08, global = -2.46707e-23, cumulative = 3.57135e-23
DICPCG:  Solving for p, Initial residual = 0.390959, Final residual = 0.00771449, No Iterations 1001
time step continuity errors : sum local = 3.33759e-09, global = -2.65525e-23, cumulative = 9.16103e-24
ExecutionTime = 14.7 s  ClockTime = 18 s

Time = 3e-05

Courant Number mean: 0.000380748 max: 0.0755139
smoothSolver:  Solving for Ux, Initial residual = 0.106702, Final residual = 7.24417e-06, No Iterations 12
smoothSolver:  Solving for Uy, Initial residual = 0.155856, Final residual = 7.2361e-06, No Iterations 13
DICPCG:  Solving for p, Initial residual = 0.195753, Final residual = 0.0203344, No Iterations 1001
time step continuity errors : sum local = 6.70663e-09, global = 1.40373e-22, cumulative = 1.49534e-22
DICPCG:  Solving for p, Initial residual = 0.157615, Final residual = 0.0143425, No Iterations 1001
time step continuity errors : sum local = 4.80401e-09, global = -1.1672e-22, cumulative = 3.28132e-23
ExecutionTime = 21.91 s  ClockTime = 25 s

Time = 4e-05

Courant Number mean: 0.000483639 max: 0.082668
smoothSolver:  Solving for Ux, Initial residual = 0.0674686, Final residual = 4.96499e-06, No Iterations 12
smoothSolver:  Solving for Uy, Initial residual = 0.0959661, Final residual = 9.48973e-06, No Iterations 12
DICPCG:  Solving for p, Initial residual = 0.135753, Final residual = 0.028804, No Iterations 1001
time step continuity errors : sum local = 9.27386e-09, global = -1.60018e-22, cumulative = -1.27205e-22
DICPCG:  Solving for p, Initial residual = 0.126283, Final residual = 0.021407, No Iterations 1001
time step continuity errors : sum local = 7.03982e-09, global = -2.53197e-22, cumulative = -3.80402e-22
ExecutionTime = 29.15 s  ClockTime = 32 s

Time = 5e-05

Courant Number mean: 0.000567237 max: 0.0862275
smoothSolver:  Solving for Ux, Initial residual = 0.0495112, Final residual = 8.22091e-06, No Iterations 11
smoothSolver:  Solving for Uy, Initial residual = 0.0689207, Final residual = 6.83783e-06, No Iterations 12
DICPCG:  Solving for p, Initial residual = 0.146023, Final residual = 0.00723614, No Iterations 705
time step continuity errors : sum local = 2.47089e-09, global = 1.66385e-22, cumulative = -2.14017e-22
DICPCG:  Solving for p, Initial residual = 0.109131, Final residual = 0.00958486, No Iterations 1001
time step continuity errors : sum local = 3.18849e-09, global = 1.00063e-22, cumulative = -1.13954e-22
ExecutionTime = 35.33 s  ClockTime = 38 s

Time = 6e-05

Courant Number mean: 0.000639277 max: 0.0883628
smoothSolver:  Solving for Ux, Initial residual = 0.0394586, Final residual = 6.81027e-06, No Iterations 11
smoothSolver:  Solving for Uy, Initial residual = 0.0537851, Final residual = 5.34459e-06, No Iterations 12
DICPCG:  Solving for p, Initial residual = 0.0545302, Final residual = 0.00999343, No Iterations 1001
time step continuity errors : sum local = 3.10662e-09, global = -1.91182e-22, cumulative = -3.05137e-22
DICPCG:  Solving for p, Initial residual = 0.0481042, Final residual = 0.00730375, No Iterations 1001
time step continuity errors : sum local = 2.2892e-09, global = 1.55327e-22, cumulative = -1.4981e-22
ExecutionTime = 42.58 s  ClockTime = 45 s

Time = 7e-05

Courant Number mean: 0.000703475 max: 0.0898169
smoothSolver:  Solving for Ux, Initial residual = 0.0329367, Final residual = 5.85041e-06, No Iterations 11
smoothSolver:  Solving for Uy, Initial residual = 0.0441234, Final residual = 9.35312e-06, No Iterations 11
DICPCG:  Solving for p, Initial residual = 0.0545467, Final residual = 0.00271402, No Iterations 735
time step continuity errors : sum local = 8.63522e-10, global = 1.60783e-23, cumulative = -1.33731e-22
DICPCG:  Solving for p, Initial residual = 0.0408894, Final residual = 0.00295663, No Iterations 1001
time step continuity errors : sum local = 9.35546e-10, global = 1.55153e-22, cumulative = 2.1422e-23
ExecutionTime = 48.86 s  ClockTime = 52 s

Time = 8e-05

Courant Number mean: 0.000761898 max: 0.0908897
smoothSolver:  Solving for Ux, Initial residual = 0.0283451, Final residual = 5.14959e-06, No Iterations 11
smoothSolver:  Solving for Uy, Initial residual = 0.0374123, Final residual = 7.9389e-06, No Iterations 11
DICPCG:  Solving for p, Initial residual = 0.0234173, Final residual = 0.00487962, No Iterations 1001
time step continuity errors : sum local = 1.5037e-09, global = -1.07378e-22, cumulative = -8.59563e-23
DICPCG:  Solving for p, Initial residual = 0.0221966, Final residual = 0.00338613, No Iterations 1001
time step continuity errors : sum local = 1.0536e-09, global = -2.38822e-22, cumulative = -3.24778e-22
ExecutionTime = 56.07 s  ClockTime = 59 s

Time = 9e-05

Courant Number mean: 0.00081583 max: 0.0917246
smoothSolver:  Solving for Ux, Initial residual = 0.0249157, Final residual = 9.88236e-06, No Iterations 10
smoothSolver:  Solving for Uy, Initial residual = 0.0324815, Final residual = 6.90087e-06, No Iterations 11
DICPCG:  Solving for p, Initial residual = 0.0315679, Final residual = 0.00157551, No Iterations 758
time step continuity errors : sum local = 5.05189e-10, global = -2.38223e-22, cumulative = -5.63001e-22
DICPCG:  Solving for p, Initial residual = 0.0239539, Final residual = 0.00216665, No Iterations 1001
time step continuity errors : sum local = 6.81161e-10, global = -1.36133e-22, cumulative = -6.99134e-22
ExecutionTime = 62.42 s  ClockTime = 65 s

Time = 0.0001

Courant Number mean: 0.000866113 max: 0.0923988
smoothSolver:  Solving for Ux, Initial residual = 0.0222492, Final residual = 8.95405e-06, No Iterations 10
smoothSolver:  Solving for Uy, Initial residual = 0.028704, Final residual = 6.10277e-06, No Iterations 11
DICPCG:  Solving for p, Initial residual = 0.017559, Final residual = 0.00324692, No Iterations 1001
time step continuity errors : sum local = 1.0078e-09, global = 3.29668e-22, cumulative = -3.69467e-22
DICPCG:  Solving for p, Initial residual = 0.0167321, Final residual = 0.00234927, No Iterations 1001
time step continuity errors : sum local = 7.34349e-10, global = -2.68394e-22, cumulative = -6.37861e-22
ExecutionTime = 69.63 s  ClockTime = 73 s

Time = 0.00011

Courant Number mean: 0.000913415 max: 0.0929581
smoothSolver:  Solving for Ux, Initial residual = 0.0201177, Final residual = 8.1955e-06, No Iterations 10
smoothSolver:  Solving for Uy, Initial residual = 0.0257115, Final residual = 5.47172e-06, No Iterations 11
DICPCG:  Solving for p, Initial residual = 0.0226768, Final residual = 0.001128, No Iterations 805
time step continuity errors : sum local = 3.62791e-10, global = 2.12989e-23, cumulative = -6.16562e-22
DICPCG:  Solving for p, Initial residual = 0.0173592, Final residual = 0.00165332, No Iterations 1001
time step continuity errors : sum local = 5.20112e-10, global = 1.37848e-22, cumulative = -4.78714e-22
ExecutionTime = 76.17 s  ClockTime = 79 s

Time = 0.00012

Courant Number mean: 0.000958147 max: 0.093432
smoothSolver:  Solving for Ux, Initial residual = 0.0183664, Final residual = 7.56047e-06, No Iterations 10
smoothSolver:  Solving for Uy, Initial residual = 0.0232882, Final residual = 4.95872e-06, No Iterations 11
DICPCG:  Solving for p, Initial residual = 0.013559, Final residual = 0.00234378, No Iterations 1001
time step continuity errors : sum local = 7.30501e-10, global = 1.0697e-22, cumulative = -3.71744e-22
DICPCG:  Solving for p, Initial residual = 0.0129877, Final residual = 0.0017508, No Iterations 1001
time step continuity errors : sum local = 5.48598e-10, global = 1.40078e-23, cumulative = -3.57736e-22
ExecutionTime = 83.37 s  ClockTime = 86 s

Time = 0.00013

Courant Number mean: 0.00100071 max: 0.0938403
smoothSolver:  Solving for Ux, Initial residual = 0.0169065, Final residual = 7.02271e-06, No Iterations 10
smoothSolver:  Solving for Uy, Initial residual = 0.0212782, Final residual = 9.67817e-06, No Iterations 10
DICPCG:  Solving for p, Initial residual = 0.0171847, Final residual = 0.000849389, No Iterations 801
time step continuity errors : sum local = 2.74515e-10, global = -8.35863e-23, cumulative = -4.41322e-22
DICPCG:  Solving for p, Initial residual = 0.0132756, Final residual = 0.00130661, No Iterations 1001
time step continuity errors : sum local = 4.11568e-10, global = -2.85776e-22, cumulative = -7.27098e-22
ExecutionTime = 89.87 s  ClockTime = 93 s

Time = 0.00014

Courant Number mean: 0.00104135 max: 0.0941968
smoothSolver:  Solving for Ux, Initial residual = 0.0156647, Final residual = 6.55822e-06, No Iterations 10
smoothSolver:  Solving for Uy, Initial residual = 0.0195918, Final residual = 8.91486e-06, No Iterations 10
DICPCG:  Solving for p, Initial residual = 0.0110129, Final residual = 0.00175199, No Iterations 1001
time step continuity errors : sum local = 5.48405e-10, global = 5.23502e-23, cumulative = -6.74748e-22
DICPCG:  Solving for p, Initial residual = 0.0104681, Final residual = 0.00131115, No Iterations 1001
time step continuity errors : sum local = 4.12366e-10, global = 2.04349e-22, cumulative = -4.70399e-22
ExecutionTime = 97.02 s  ClockTime = 100 s

Time = 0.00015

Courant Number mean: 0.00108029 max: 0.0945117
smoothSolver:  Solving for Ux, Initial residual = 0.0145993, Final residual = 6.15485e-06, No Iterations 10
smoothSolver:  Solving for Uy, Initial residual = 0.018149, Final residual = 8.26292e-06, No Iterations 10
DICPCG:  Solving for p, Initial residual = 0.013531, Final residual = 0.000671551, No Iterations 807
time step continuity errors : sum local = 2.1735e-10, global = 4.28274e-22, cumulative = -4.21251e-23
DICPCG:  Solving for p, Initial residual = 0.0105626, Final residual = 0.000985247, No Iterations 1001
time step continuity errors : sum local = 3.11356e-10, global = -1.51889e-22, cumulative = -1.94014e-22
ExecutionTime = 103.51 s  ClockTime = 106 s

Time = 0.00016

Courant Number mean: 0.00111775 max: 0.0947924
smoothSolver:  Solving for Ux, Initial residual = 0.0136707, Final residual = 5.79915e-06, No Iterations 10
smoothSolver:  Solving for Uy, Initial residual = 0.0169073, Final residual = 7.70021e-06, No Iterations 10
DICPCG:  Solving for p, Initial residual = 0.00920484, Final residual = 0.00136686, No Iterations 1001
time step continuity errors : sum local = 4.29334e-10, global = -3.46754e-22, cumulative = -5.40769e-22
DICPCG:  Solving for p, Initial residual = 0.00869522, Final residual = 0.00103706, No Iterations 1001
time step continuity errors : sum local = 3.26996e-10, global = -2.14857e-22, cumulative = -7.55626e-22
ExecutionTime = 110.68 s  ClockTime = 114 s

Time = 0.00017

Courant Number mean: 0.00115383 max: 0.0950449
smoothSolver:  Solving for Ux, Initial residual = 0.0128577, Final residual = 5.48451e-06, No Iterations 10
smoothSolver:  Solving for Uy, Initial residual = 0.0158213, Final residual = 7.20896e-06, No Iterations 10
DICPCG:  Solving for p, Initial residual = 0.0111643, Final residual = 0.000548924, No Iterations 751
time step continuity errors : sum local = 1.78392e-10, global = 2.39854e-23, cumulative = -7.31641e-22
DICPCG:  Solving for p, Initial residual = 0.00878764, Final residual = 0.000817909, No Iterations 1001
time step continuity errors : sum local = 2.58801e-10, global = 3.2368e-22, cumulative = -4.0796e-22
ExecutionTime = 117 s  ClockTime = 120 s

Time = 0.00018

Courant Number mean: 0.00118872 max: 0.0952734
smoothSolver:  Solving for Ux, Initial residual = 0.0121366, Final residual = 5.2029e-06, No Iterations 10
smoothSolver:  Solving for Uy, Initial residual = 0.0148692, Final residual = 6.77715e-06, No Iterations 10
DICPCG:  Solving for p, Initial residual = 0.00801663, Final residual = 0.00114265, No Iterations 1001
time step continuity errors : sum local = 3.59811e-10, global = 2.22662e-22, cumulative = -1.85299e-22
DICPCG:  Solving for p, Initial residual = 0.0074918, Final residual = 0.000846122, No Iterations 1001
time step continuity errors : sum local = 2.67522e-10, global = -1.85706e-22, cumulative = -3.71004e-22
ExecutionTime = 124.17 s  ClockTime = 127 s

Time = 0.00019

Courant Number mean: 0.00122249 max: 0.0954816
smoothSolver:  Solving for Ux, Initial residual = 0.0114944, Final residual = 4.94982e-06, No Iterations 10
smoothSolver:  Solving for Uy, Initial residual = 0.0140225, Final residual = 6.39376e-06, No Iterations 10
DICPCG:  Solving for p, Initial residual = 0.00945214, Final residual = 0.000468426, No Iterations 756
time step continuity errors : sum local = 1.51904e-10, global = 1.1729e-22, cumulative = -2.53715e-22
DICPCG:  Solving for p, Initial residual = 0.00748852, Final residual = 0.000644103, No Iterations 1001
time step continuity errors : sum local = 2.04337e-10, global = 9.01769e-23, cumulative = -1.63538e-22
ExecutionTime = 130.49 s  ClockTime = 133 s

Time = 0.0002

Courant Number mean: 0.00125522 max: 0.0956722
smoothSolver:  Solving for Ux, Initial residual = 0.0109175, Final residual = 4.72084e-06, No Iterations 10
smoothSolver:  Solving for Uy, Initial residual = 0.0132688, Final residual = 6.05162e-06, No Iterations 10
DICPCG:  Solving for p, Initial residual = 0.00666415, Final residual = 0.000954967, No Iterations 1001
time step continuity errors : sum local = 3.01232e-10, global = 4.10734e-23, cumulative = -1.22464e-22
DICPCG:  Solving for p, Initial residual = 0.00632557, Final residual = 0.00069995, No Iterations 1001
time step continuity errors : sum local = 2.21716e-10, global = -1.81662e-22, cumulative = -3.04126e-22
ExecutionTime = 138.64 s  ClockTime = 142 s

Time = 0.00021

Courant Number mean: 0.00128705 max: 0.0958478
smoothSolver:  Solving for Ux, Initial residual = 0.0103973, Final residual = 9.66767e-06, No Iterations 9
smoothSolver:  Solving for Uy, Initial residual = 0.0125902, Final residual = 5.7441e-06, No Iterations 10
DICPCG:  Solving for p, Initial residual = 0.00922253, Final residual = 0.000460451, No Iterations 725
time step continuity errors : sum local = 1.48547e-10, global = 1.74507e-22, cumulative = -1.29619e-22
DICPCG:  Solving for p, Initial residual = 0.00755216, Final residual = 0.000524074, No Iterations 1001
time step continuity errors : sum local = 1.66878e-10, global = -3.4995e-22, cumulative = -4.79569e-22
ExecutionTime = 145.64 s  ClockTime = 149 s

Time = 0.00022

Courant Number mean: 0.00131798 max: 0.0960101
smoothSolver:  Solving for Ux, Initial residual = 0.00992508, Final residual = 9.25838e-06, No Iterations 9
smoothSolver:  Solving for Uy, Initial residual = 0.0119792, Final residual = 5.46661e-06, No Iterations 10
DICPCG:  Solving for p, Initial residual = 0.00682246, Final residual = 0.000815848, No Iterations 1001
time step continuity errors : sum local = 2.58124e-10, global = -1.44022e-22, cumulative = -6.23591e-22
DICPCG:  Solving for p, Initial residual = 0.00649075, Final residual = 0.000595655, No Iterations 1001
time step continuity errors : sum local = 1.8923e-10, global = 5.90528e-23, cumulative = -5.64538e-22
ExecutionTime = 153.94 s  ClockTime = 157 s

Time = 0.00023

Courant Number mean: 0.00134811 max: 0.0961607
smoothSolver:  Solving for Ux, Initial residual = 0.00949478, Final residual = 8.88331e-06, No Iterations 9
smoothSolver:  Solving for Uy, Initial residual = 0.011423, Final residual = 5.21435e-06, No Iterations 10
DICPCG:  Solving for p, Initial residual = 0.00809408, Final residual = 0.000402717, No Iterations 715
time step continuity errors : sum local = 1.30061e-10, global = -2.66371e-22, cumulative = -8.30909e-22
DICPCG:  Solving for p, Initial residual = 0.0066864, Final residual = 0.000460951, No Iterations 1001
time step continuity errors : sum local = 1.46872e-10, global = 1.32155e-22, cumulative = -6.98754e-22
ExecutionTime = 160.88 s  ClockTime = 164 s

Time = 0.00024

Courant Number mean: 0.00137751 max: 0.096301
smoothSolver:  Solving for Ux, Initial residual = 0.00910083, Final residual = 8.53812e-06, No Iterations 9
smoothSolver:  Solving for Uy, Initial residual = 0.0109176, Final residual = 4.9847e-06, No Iterations 10
DICPCG:  Solving for p, Initial residual = 0.00622406, Final residual = 0.00065896, No Iterations 1001
time step continuity errors : sum local = 2.09336e-10, global = 2.91188e-22, cumulative = -4.07566e-22
DICPCG:  Solving for p, Initial residual = 0.00588519, Final residual = 0.000516048, No Iterations 1001
time step continuity errors : sum local = 1.6419e-10, global = -2.84395e-22, cumulative = -6.91961e-22
ExecutionTime = 169.16 s  ClockTime = 172 s

Time = 0.00025

Courant Number mean: 0.0014062 max: 0.0964321
smoothSolver:  Solving for Ux, Initial residual = 0.00873859, Final residual = 8.21917e-06, No Iterations 9
smoothSolver:  Solving for Uy, Initial residual = 0.0104536, Final residual = 4.77409e-06, No Iterations 10
DICPCG:  Solving for p, Initial residual = 0.00724212, Final residual = 0.000360057, No Iterations 713
time step continuity errors : sum local = 1.16256e-10, global = -2.82449e-22, cumulative = -9.7441e-22
DICPCG:  Solving for p, Initial residual = 0.00603819, Final residual = 0.000400215, No Iterations 1001
time step continuity errors : sum local = 1.27671e-10, global = -1.68205e-22, cumulative = -1.14262e-21
ExecutionTime = 176.09 s  ClockTime = 179 s

Time = 0.00026

Courant Number mean: 0.00143422 max: 0.0965548
smoothSolver:  Solving for Ux, Initial residual = 0.00840483, Final residual = 7.92388e-06, No Iterations 9
smoothSolver:  Solving for Uy, Initial residual = 0.0100285, Final residual = 9.79949e-06, No Iterations 9
DICPCG:  Solving for p, Initial residual = 0.00567451, Final residual = 0.000603747, No Iterations 1001
time step continuity errors : sum local = 1.91845e-10, global = 4.1816e-22, cumulative = -7.24455e-22
DICPCG:  Solving for p, Initial residual = 0.00539675, Final residual = 0.000453451, No Iterations 1001
time step continuity errors : sum local = 1.44468e-10, global = -2.80457e-22, cumulative = -1.00491e-21
ExecutionTime = 184.35 s  ClockTime = 187 s

Time = 0.00027

Courant Number mean: 0.00146166 max: 0.0966702
smoothSolver:  Solving for Ux, Initial residual = 0.0080957, Final residual = 7.64938e-06, No Iterations 9
smoothSolver:  Solving for Uy, Initial residual = 0.00963556, Final residual = 9.41755e-06, No Iterations 9
DICPCG:  Solving for p, Initial residual = 0.0066335, Final residual = 0.000327926, No Iterations 709
time step continuity errors : sum local = 1.0582e-10, global = 5.78081e-24, cumulative = -9.99131e-22
DICPCG:  Solving for p, Initial residual = 0.00555536, Final residual = 0.00034091, No Iterations 1001
time step continuity errors : sum local = 1.08975e-10, global = -3.08312e-22, cumulative = -1.30744e-21
ExecutionTime = 191.24 s  ClockTime = 194 s

Time = 0.00028

Courant Number mean: 0.00148851 max: 0.0967789
smoothSolver:  Solving for Ux, Initial residual = 0.00780906, Final residual = 7.3937e-06, No Iterations 9
smoothSolver:  Solving for Uy, Initial residual = 0.00927313, Final residual = 9.06476e-06, No Iterations 9
DICPCG:  Solving for p, Initial residual = 0.00523026, Final residual = 0.000546745, No Iterations 1001
time step continuity errors : sum local = 1.73757e-10, global = -3.0989e-22, cumulative = -1.61733e-21
DICPCG:  Solving for p, Initial residual = 0.00493043, Final residual = 0.000392251, No Iterations 1001
time step continuity errors : sum local = 1.25166e-10, global = 1.95063e-22, cumulative = -1.42227e-21
ExecutionTime = 199.44 s  ClockTime = 202 s

Time = 0.00029

Courant Number mean: 0.00151479 max: 0.0968816
smoothSolver:  Solving for Ux, Initial residual = 0.00754223, Final residual = 7.15487e-06, No Iterations 9
smoothSolver:  Solving for Uy, Initial residual = 0.00893593, Final residual = 8.73684e-06, No Iterations 9
DICPCG:  Solving for p, Initial residual = 0.00605576, Final residual = 0.000300904, No Iterations 706
time step continuity errors : sum local = 9.71095e-11, global = 6.59281e-22, cumulative = -7.6299e-22
DICPCG:  Solving for p, Initial residual = 0.00510475, Final residual = 0.000285757, No Iterations 1001
time step continuity errors : sum local = 9.16632e-11, global = -2.43376e-23, cumulative = -7.87327e-22
ExecutionTime = 206.33 s  ClockTime = 209 s

Time = 0.0003

Courant Number mean: 0.00154059 max: 0.0969787
smoothSolver:  Solving for Ux, Initial residual = 0.00729329, Final residual = 6.93132e-06, No Iterations 9
smoothSolver:  Solving for Uy, Initial residual = 0.00862324, Final residual = 8.43233e-06, No Iterations 9
DICPCG:  Solving for p, Initial residual = 0.00483049, Final residual = 0.000239919, No Iterations 750
time step continuity errors : sum local = 7.96773e-11, global = 5.50237e-23, cumulative = -7.32304e-22
DICPCG:  Solving for p, Initial residual = 0.00422031, Final residual = 0.000409801, No Iterations 1001
time step continuity errors : sum local = 1.30663e-10, global = 3.08599e-22, cumulative = -4.23705e-22
ExecutionTime = 213.38 s  ClockTime = 216 s

Time = 0.00031

Courant Number mean: 0.00156589 max: 0.0970707
smoothSolver:  Solving for Ux, Initial residual = 0.00706036, Final residual = 6.72136e-06, No Iterations 9
smoothSolver:  Solving for Uy, Initial residual = 0.00833135, Final residual = 8.14818e-06, No Iterations 9
DICPCG:  Solving for p, Initial residual = 0.005027, Final residual = 0.000249446, No Iterations 717
time step continuity errors : sum local = 8.21264e-11, global = -2.01696e-22, cumulative = -6.25401e-22
DICPCG:  Solving for p, Initial residual = 0.00430413, Final residual = 0.000395058, No Iterations 1001
time step continuity errors : sum local = 1.25971e-10, global = -7.01545e-23, cumulative = -6.95555e-22
ExecutionTime = 220.24 s  ClockTime = 223 s

Time = 0.00032

Courant Number mean: 0.00159072 max: 0.0971582
smoothSolver:  Solving for Ux, Initial residual = 0.00684204, Final residual = 6.5241e-06, No Iterations 9
smoothSolver:  Solving for Uy, Initial residual = 0.00805835, Final residual = 7.88245e-06, No Iterations 9
DICPCG:  Solving for p, Initial residual = 0.00484906, Final residual = 0.000241912, No Iterations 715
time step continuity errors : sum local = 7.98462e-11, global = 6.68853e-23, cumulative = -6.2867e-22
DICPCG:  Solving for p, Initial residual = 0.00418635, Final residual = 0.000394904, No Iterations 1001
time step continuity errors : sum local = 1.25919e-10, global = -1.5694e-23, cumulative = -6.44364e-22
ExecutionTime = 227.11 s  ClockTime = 230 s

Time = 0.00033

Courant Number mean: 0.00161511 max: 0.0972414
smoothSolver:  Solving for Ux, Initial residual = 0.00663716, Final residual = 6.33833e-06, No Iterations 9
smoothSolver:  Solving for Uy, Initial residual = 0.00780272, Final residual = 7.63353e-06, No Iterations 9
DICPCG:  Solving for p, Initial residual = 0.00467818, Final residual = 0.000233897, No Iterations 712
time step continuity errors : sum local = 7.70464e-11, global = -8.38163e-23, cumulative = -7.2818e-22
DICPCG:  Solving for p, Initial residual = 0.00403799, Final residual = 0.000368648, No Iterations 1001
time step continuity errors : sum local = 1.17624e-10, global = 3.77158e-22, cumulative = -3.51022e-22
ExecutionTime = 233.96 s  ClockTime = 237 s

Time = 0.00034

Courant Number mean: 0.00163909 max: 0.0973206
smoothSolver:  Solving for Ux, Initial residual = 0.00644429, Final residual = 6.16302e-06, No Iterations 9
smoothSolver:  Solving for Uy, Initial residual = 0.00756268, Final residual = 7.39975e-06, No Iterations 9
DICPCG:  Solving for p, Initial residual = 0.00450385, Final residual = 0.000225118, No Iterations 711
time step continuity errors : sum local = 7.41744e-11, global = 5.90193e-23, cumulative = -2.92003e-22
DICPCG:  Solving for p, Initial residual = 0.00397304, Final residual = 0.000350416, No Iterations 1001
time step continuity errors : sum local = 1.11874e-10, global = -1.88285e-22, cumulative = -4.80288e-22
ExecutionTime = 240.83 s  ClockTime = 244 s

Time = 0.00035

Courant Number mean: 0.00166267 max: 0.0973963
smoothSolver:  Solving for Ux, Initial residual = 0.00626229, Final residual = 5.99721e-06, No Iterations 9
smoothSolver:  Solving for Uy, Initial residual = 0.00733694, Final residual = 7.17986e-06, No Iterations 9
DICPCG:  Solving for p, Initial residual = 0.00435766, Final residual = 0.000215449, No Iterations 710
time step continuity errors : sum local = 7.09909e-11, global = -1.27929e-22, cumulative = -6.08217e-22
DICPCG:  Solving for p, Initial residual = 0.00383861, Final residual = 0.000321145, No Iterations 1001
time step continuity errors : sum local = 1.02703e-10, global = -4.06636e-22, cumulative = -1.01485e-21
ExecutionTime = 247.68 s  ClockTime = 251 s

Time = 0.00036

Courant Number mean: 0.00168585 max: 0.0974686
smoothSolver:  Solving for Ux, Initial residual = 0.00609057, Final residual = 5.84025e-06, No Iterations 9
smoothSolver:  Solving for Uy, Initial residual = 0.00712422, Final residual = 6.97263e-06, No Iterations 9
DICPCG:  Solving for p, Initial residual = 0.00426158, Final residual = 0.000212097, No Iterations 707
time step continuity errors : sum local = 6.98053e-11, global = -2.84278e-22, cumulative = -1.29913e-21
DICPCG:  Solving for p, Initial residual = 0.00369439, Final residual = 0.000323918, No Iterations 1001
time step continuity errors : sum local = 1.03444e-10, global = 2.71721e-22, cumulative = -1.02741e-21
ExecutionTime = 254.52 s  ClockTime = 257 s

Time = 0.00037

Courant Number mean: 0.00170867 max: 0.0975378
smoothSolver:  Solving for Ux, Initial residual = 0.00592811, Final residual = 5.69151e-06, No Iterations 9
smoothSolver:  Solving for Uy, Initial residual = 0.00692346, Final residual = 6.77702e-06, No Iterations 9
DICPCG:  Solving for p, Initial residual = 0.00412142, Final residual = 0.00020471, No Iterations 706
time step continuity errors : sum local = 6.73674e-11, global = 2.27235e-22, cumulative = -8.00175e-22
DICPCG:  Solving for p, Initial residual = 0.00366719, Final residual = 0.000306317, No Iterations 1001
time step continuity errors : sum local = 9.79021e-11, global = 1.07069e-22, cumulative = -6.93106e-22
ExecutionTime = 261.33 s  ClockTime = 264 s

Time = 0.00038

Courant Number mean: 0.00173116 max: 0.0976041
smoothSolver:  Solving for Ux, Initial residual = 0.00577407, Final residual = 5.55019e-06, No Iterations 9
smoothSolver:  Solving for Uy, Initial residual = 0.00673367, Final residual = 6.59207e-06, No Iterations 9
DICPCG:  Solving for p, Initial residual = 0.00403354, Final residual = 0.000201537, No Iterations 703
time step continuity errors : sum local = 6.62403e-11, global = -7.57486e-23, cumulative = -7.68855e-22
DICPCG:  Solving for p, Initial residual = 0.003507, Final residual = 0.000291713, No Iterations 1001
time step continuity errors : sum local = 9.32799e-11, global = -8.2713e-22, cumulative = -1.59598e-21
ExecutionTime = 268.17 s  ClockTime = 271 s

Time = 0.00039

Courant Number mean: 0.0017533 max: 0.0976677
smoothSolver:  Solving for Ux, Initial residual = 0.005628, Final residual = 5.41576e-06, No Iterations 9
smoothSolver:  Solving for Uy, Initial residual = 0.00655397, Final residual = 6.41693e-06, No Iterations 9
DICPCG:  Solving for p, Initial residual = 0.00389255, Final residual = 0.000194078, No Iterations 703
time step continuity errors : sum local = 6.37973e-11, global = 2.90357e-23, cumulative = -1.56695e-21
DICPCG:  Solving for p, Initial residual = 0.00349099, Final residual = 0.000280955, No Iterations 1001
time step continuity errors : sum local = 8.98612e-11, global = 1.04193e-22, cumulative = -1.46276e-21
ExecutionTime = 275 s  ClockTime = 278 s

Time = 0.0004

Courant Number mean: 0.00177511 max: 0.0977288
smoothSolver:  Solving for Ux, Initial residual = 0.00548919, Final residual = 5.28787e-06, No Iterations 9
smoothSolver:  Solving for Uy, Initial residual = 0.00638357, Final residual = 6.25084e-06, No Iterations 9
DICPCG:  Solving for p, Initial residual = 0.00377932, Final residual = 0.000188234, No Iterations 698
time step continuity errors : sum local = 6.18667e-11, global = -3.20613e-23, cumulative = -1.49482e-21
DICPCG:  Solving for p, Initial residual = 0.00332619, Final residual = 0.000268933, No Iterations 1001
time step continuity errors : sum local = 8.60482e-11, global = 9.41021e-23, cumulative = -1.40072e-21
ExecutionTime = 281.79 s  ClockTime = 285 s

Time = 0.00041

Courant Number mean: 0.00179661 max: 0.0977875
smoothSolver:  Solving for Ux, Initial residual = 0.00535711, Final residual = 5.16597e-06, No Iterations 9
smoothSolver:  Solving for Uy, Initial residual = 0.00622178, Final residual = 6.09312e-06, No Iterations 9
DICPCG:  Solving for p, Initial residual = 0.00370243, Final residual = 0.000183215, No Iterations 702
time step continuity errors : sum local = 6.01946e-11, global = 1.89261e-22, cumulative = -1.21145e-21
DICPCG:  Solving for p, Initial residual = 0.0032486, Final residual = 0.000259312, No Iterations 1001
time step continuity errors : sum local = 8.29924e-11, global = 7.28784e-23, cumulative = -1.13858e-21
ExecutionTime = 288.63 s  ClockTime = 292 s

Time = 0.00042

Courant Number mean: 0.00181783 max: 0.097844
smoothSolver:  Solving for Ux, Initial residual = 0.00523135, Final residual = 5.04956e-06, No Iterations 9
smoothSolver:  Solving for Uy, Initial residual = 0.00606795, Final residual = 5.94315e-06, No Iterations 9
DICPCG:  Solving for p, Initial residual = 0.00360592, Final residual = 0.000179222, No Iterations 701
time step continuity errors : sum local = 5.88375e-11, global = -3.04381e-22, cumulative = -1.44296e-21
DICPCG:  Solving for p, Initial residual = 0.00323219, Final residual = 0.000248787, No Iterations 1001
time step continuity errors : sum local = 7.96537e-11, global = -2.2334e-22, cumulative = -1.6663e-21
ExecutionTime = 295.44 s  ClockTime = 298 s

Time = 0.00043

Courant Number mean: 0.00183875 max: 0.0978985
smoothSolver:  Solving for Ux, Initial residual = 0.00511136, Final residual = 4.93836e-06, No Iterations 9
smoothSolver:  Solving for Uy, Initial residual = 0.00592152, Final residual = 5.80037e-06, No Iterations 9
DICPCG:  Solving for p, Initial residual = 0.00350899, Final residual = 0.000172738, No Iterations 696
time step continuity errors : sum local = 5.67376e-11, global = -3.58864e-22, cumulative = -2.02516e-21
DICPCG:  Solving for p, Initial residual = 0.00310249, Final residual = 0.000239809, No Iterations 1001
time step continuity errors : sum local = 7.67988e-11, global = -1.57342e-22, cumulative = -2.1825e-21
ExecutionTime = 302.24 s  ClockTime = 305 s

Time = 0.00044

Courant Number mean: 0.0018594 max: 0.097951
smoothSolver:  Solving for Ux, Initial residual = 0.00499675, Final residual = 4.83204e-06, No Iterations 9
smoothSolver:  Solving for Uy, Initial residual = 0.00578197, Final residual = 5.66428e-06, No Iterations 9
DICPCG:  Solving for p, Initial residual = 0.00344504, Final residual = 0.000171146, No Iterations 698
time step continuity errors : sum local = 5.61448e-11, global = 6.51353e-23, cumulative = -2.11737e-21
DICPCG:  Solving for p, Initial residual = 0.00305803, Final residual = 0.000231462, No Iterations 1001
time step continuity errors : sum local = 7.41479e-11, global = -3.34103e-23, cumulative = -2.15078e-21
ExecutionTime = 309.05 s  ClockTime = 312 s

Time = 0.00045

Courant Number mean: 0.00187976 max: 0.0980016
smoothSolver:  Solving for Ux, Initial residual = 0.00488731, Final residual = 4.73026e-06, No Iterations 9
smoothSolver:  Solving for Uy, Initial residual = 0.00564881, Final residual = 5.53441e-06, No Iterations 9
DICPCG:  Solving for p, Initial residual = 0.00336206, Final residual = 0.000167162, No Iterations 698
time step continuity errors : sum local = 5.48104e-11, global = 1.11924e-22, cumulative = -2.03885e-21
DICPCG:  Solving for p, Initial residual = 0.00304561, Final residual = 0.000223963, No Iterations 1001
time step continuity errors : sum local = 7.17574e-11, global = -1.72645e-22, cumulative = -2.2115e-21
ExecutionTime = 315.85 s  ClockTime = 319 s

Time = 0.00046

Courant Number mean: 0.00189989 max: 0.0980505
smoothSolver:  Solving for Ux, Initial residual = 0.0047826, Final residual = 9.92085e-06, No Iterations 8
smoothSolver:  Solving for Uy, Initial residual = 0.00552162, Final residual = 5.41036e-06, No Iterations 9
DICPCG:  Solving for p, Initial residual = 0.00459017, Final residual = 0.000228654, No Iterations 678
time step continuity errors : sum local = 7.36944e-11, global = -6.70534e-23, cumulative = -2.27855e-21
DICPCG:  Solving for p, Initial residual = 0.00419152, Final residual = 0.000215146, No Iterations 1001
time step continuity errors : sum local = 6.89699e-11, global = -1.33937e-22, cumulative = -2.41249e-21
ExecutionTime = 322.59 s  ClockTime = 326 s

Time = 0.00047

Courant Number mean: 0.00191976 max: 0.0980979
smoothSolver:  Solving for Ux, Initial residual = 0.00468234, Final residual = 9.72013e-06, No Iterations 8
smoothSolver:  Solving for Uy, Initial residual = 0.00540002, Final residual = 5.29172e-06, No Iterations 9
DICPCG:  Solving for p, Initial residual = 0.00439053, Final residual = 0.000212737, No Iterations 679
time step continuity errors : sum local = 6.8857e-11, global = 9.13515e-23, cumulative = -2.32114e-21
DICPCG:  Solving for p, Initial residual = 0.00412711, Final residual = 0.000221441, No Iterations 1001
time step continuity errors : sum local = 7.09567e-11, global = 5.4103e-23, cumulative = -2.26703e-21
ExecutionTime = 329.3 s  ClockTime = 332 s

Time = 0.00048

Courant Number mean: 0.00193938 max: 0.0981437
smoothSolver:  Solving for Ux, Initial residual = 0.00458621, Final residual = 9.52716e-06, No Iterations 8
smoothSolver:  Solving for Uy, Initial residual = 0.0052837, Final residual = 5.17824e-06, No Iterations 9
DICPCG:  Solving for p, Initial residual = 0.00434529, Final residual = 0.000213902, No Iterations 678
time step continuity errors : sum local = 6.91187e-11, global = -3.28269e-23, cumulative = -2.29986e-21
DICPCG:  Solving for p, Initial residual = 0.00407101, Final residual = 0.00021633, No Iterations 1001
time step continuity errors : sum local = 6.93195e-11, global = -1.84956e-22, cumulative = -2.48482e-21
ExecutionTime = 336.01 s  ClockTime = 339 s

Time = 0.00049

Courant Number mean: 0.00195876 max: 0.098188
smoothSolver:  Solving for Ux, Initial residual = 0.00449402, Final residual = 9.34181e-06, No Iterations 8
smoothSolver:  Solving for Uy, Initial residual = 0.00517226, Final residual = 5.06951e-06, No Iterations 9
DICPCG:  Solving for p, Initial residual = 0.00426717, Final residual = 0.000211805, No Iterations 677
time step continuity errors : sum local = 6.84097e-11, global = 1.34696e-22, cumulative = -2.35012e-21
DICPCG:  Solving for p, Initial residual = 0.0040165, Final residual = 0.00021066, No Iterations 1001
time step continuity errors : sum local = 6.75155e-11, global = -3.25457e-22, cumulative = -2.67558e-21
ExecutionTime = 341.95 s  ClockTime = 345 s

Time = 0.0005

Courant Number mean: 0.00197791 max: 0.0982308
smoothSolver:  Solving for Ux, Initial residual = 0.00440547, Final residual = 9.16362e-06, No Iterations 8
smoothSolver:  Solving for Uy, Initial residual = 0.00506541, Final residual = 4.96524e-06, No Iterations 9
DICPCG:  Solving for p, Initial residual = 0.00419953, Final residual = 0.000205629, No Iterations 677
time step continuity errors : sum local = 6.64168e-11, global = -3.70614e-23, cumulative = -2.71264e-21
DICPCG:  Solving for p, Initial residual = 0.00397531, Final residual = 0.000203829, No Iterations 1001
time step continuity errors : sum local = 6.53407e-11, global = -4.35902e-22, cumulative = -3.14854e-21
ExecutionTime = 347.91 s  ClockTime = 351 s

Time = 0.00051

Courant Number mean: 0.00199686 max: 0.0982724
smoothSolver:  Solving for Ux, Initial residual = 0.00432034, Final residual = 8.99218e-06, No Iterations 8
smoothSolver:  Solving for Uy, Initial residual = 0.00496286, Final residual = 4.86517e-06, No Iterations 9
DICPCG:  Solving for p, Initial residual = 0.00412069, Final residual = 0.000205158, No Iterations 676
time step continuity errors : sum local = 6.62049e-11, global = -2.36587e-22, cumulative = -3.38513e-21
DICPCG:  Solving for p, Initial residual = 0.00388504, Final residual = 0.000197698, No Iterations 1001
time step continuity errors : sum local = 6.33873e-11, global = -4.61098e-22, cumulative = -3.84622e-21
ExecutionTime = 353.86 s  ClockTime = 357 s

Time = 0.00052

Courant Number mean: 0.0020156 max: 0.0983127
smoothSolver:  Solving for Ux, Initial residual = 0.00423849, Final residual = 8.82703e-06, No Iterations 8
smoothSolver:  Solving for Uy, Initial residual = 0.00486436, Final residual = 4.76905e-06, No Iterations 9
DICPCG:  Solving for p, Initial residual = 0.00406655, Final residual = 0.000199334, No Iterations 676
time step continuity errors : sum local = 6.43335e-11, global = -1.93712e-22, cumulative = -4.03994e-21
DICPCG:  Solving for p, Initial residual = 0.00385529, Final residual = 0.000192467, No Iterations 1001
time step continuity errors : sum local = 6.17162e-11, global = -1.8391e-22, cumulative = -4.22385e-21
ExecutionTime = 359.78 s  ClockTime = 363 s

Time = 0.00053

Courant Number mean: 0.00203413 max: 0.0983518
smoothSolver:  Solving for Ux, Initial residual = 0.00415969, Final residual = 8.66788e-06, No Iterations 8
smoothSolver:  Solving for Uy, Initial residual = 0.00476967, Final residual = 4.67664e-06, No Iterations 9
DICPCG:  Solving for p, Initial residual = 0.00399047, Final residual = 0.000197288, No Iterations 675
time step continuity errors : sum local = 6.36378e-11, global = -2.47392e-22, cumulative = -4.47124e-21
DICPCG:  Solving for p, Initial residual = 0.00377101, Final residual = 0.000187191, No Iterations 1001
time step continuity errors : sum local = 6.0032e-11, global = -3.92611e-22, cumulative = -4.86385e-21
ExecutionTime = 365.71 s  ClockTime = 369 s

Time = 0.00054

Courant Number mean: 0.00205245 max: 0.0983898
smoothSolver:  Solving for Ux, Initial residual = 0.00408375, Final residual = 8.51447e-06, No Iterations 8
smoothSolver:  Solving for Uy, Initial residual = 0.00467859, Final residual = 9.83307e-06, No Iterations 8
DICPCG:  Solving for p, Initial residual = 0.00397423, Final residual = 0.000196993, No Iterations 671
time step continuity errors : sum local = 6.36431e-11, global = -2.8369e-22, cumulative = -5.14754e-21
DICPCG:  Solving for p, Initial residual = 0.00368379, Final residual = 0.000190978, No Iterations 1001
time step continuity errors : sum local = 6.12385e-11, global = 4.81137e-23, cumulative = -5.09943e-21
ExecutionTime = 371.62 s  ClockTime = 375 s

Time = 0.00055

Courant Number mean: 0.00207057 max: 0.0984267
smoothSolver:  Solving for Ux, Initial residual = 0.00401058, Final residual = 8.36641e-06, No Iterations 8
smoothSolver:  Solving for Uy, Initial residual = 0.004591, Final residual = 9.64983e-06, No Iterations 8
DICPCG:  Solving for p, Initial residual = 0.00394445, Final residual = 0.000195221, No Iterations 672
time step continuity errors : sum local = 6.28923e-11, global = -1.42461e-23, cumulative = -5.11367e-21
DICPCG:  Solving for p, Initial residual = 0.00373158, Final residual = 0.000171262, No Iterations 1001
time step continuity errors : sum local = 5.49895e-11, global = 2.02389e-22, cumulative = -4.91128e-21
ExecutionTime = 377.54 s  ClockTime = 380 s

Time = 0.00056

Courant Number mean: 0.00208852 max: 0.0984626
smoothSolver:  Solving for Ux, Initial residual = 0.00394003, Final residual = 8.22345e-06, No Iterations 8
smoothSolver:  Solving for Uy, Initial residual = 0.00450653, Final residual = 9.47301e-06, No Iterations 8
DICPCG:  Solving for p, Initial residual = 0.00383072, Final residual = 0.000189328, No Iterations 672
time step continuity errors : sum local = 6.10299e-11, global = -3.96159e-22, cumulative = -5.30744e-21
DICPCG:  Solving for p, Initial residual = 0.00365984, Final residual = 0.000166142, No Iterations 1001
time step continuity errors : sum local = 5.33564e-11, global = -2.0343e-22, cumulative = -5.51087e-21
ExecutionTime = 383.46 s  ClockTime = 386 s

Time = 0.00057

Courant Number mean: 0.00210629 max: 0.0984975
smoothSolver:  Solving for Ux, Initial residual = 0.00387189, Final residual = 8.0853e-06, No Iterations 8
smoothSolver:  Solving for Uy, Initial residual = 0.0044251, Final residual = 9.30257e-06, No Iterations 8
DICPCG:  Solving for p, Initial residual = 0.00377563, Final residual = 0.00018601, No Iterations 669
time step continuity errors : sum local = 5.99332e-11, global = -5.32709e-22, cumulative = -6.04358e-21
DICPCG:  Solving for p, Initial residual = 0.00352246, Final residual = 0.000160151, No Iterations 1001
time step continuity errors : sum local = 5.1447e-11, global = 1.68849e-22, cumulative = -5.87473e-21
ExecutionTime = 389.36 s  ClockTime = 392 s

Time = 0.00058

Courant Number mean: 0.00212387 max: 0.0985315
smoothSolver:  Solving for Ux, Initial residual = 0.00380606, Final residual = 7.95181e-06, No Iterations 8
smoothSolver:  Solving for Uy, Initial residual = 0.00434655, Final residual = 9.13811e-06, No Iterations 8
DICPCG:  Solving for p, Initial residual = 0.00374719, Final residual = 0.000183662, No Iterations 671
time step continuity errors : sum local = 5.91645e-11, global = -9.16495e-23, cumulative = -5.96638e-21
DICPCG:  Solving for p, Initial residual = 0.00351494, Final residual = 0.000155662, No Iterations 1001
time step continuity errors : sum local = 5.00185e-11, global = -2.98773e-22, cumulative = -6.26516e-21
ExecutionTime = 395.25 s  ClockTime = 398 s

Time = 0.00059

Courant Number mean: 0.00214128 max: 0.0985645
smoothSolver:  Solving for Ux, Initial residual = 0.00374249, Final residual = 7.8227e-06, No Iterations 8
smoothSolver:  Solving for Uy, Initial residual = 0.00427072, Final residual = 8.97934e-06, No Iterations 8
DICPCG:  Solving for p, Initial residual = 0.00368126, Final residual = 0.000180133, No Iterations 671
time step continuity errors : sum local = 5.80228e-11, global = 1.53619e-22, cumulative = -6.11154e-21
DICPCG:  Solving for p, Initial residual = 0.00352314, Final residual = 0.000152441, No Iterations 1001
time step continuity errors : sum local = 4.89841e-11, global = 1.56428e-22, cumulative = -5.95511e-21
ExecutionTime = 401.16 s  ClockTime = 404 s

Time = 0.0006

Courant Number mean: 0.00215851 max: 0.0985967
smoothSolver:  Solving for Ux, Initial residual = 0.00368104, Final residual = 7.69773e-06, No Iterations 8
smoothSolver:  Solving for Uy, Initial residual = 0.00419749, Final residual = 8.82599e-06, No Iterations 8
DICPCG:  Solving for p, Initial residual = 0.00361553, Final residual = 0.000179075, No Iterations 670
time step continuity errors : sum local = 5.76499e-11, global = -1.15576e-22, cumulative = -6.07068e-21
DICPCG:  Solving for p, Initial residual = 0.00344463, Final residual = 0.00014857, No Iterations 1001
time step continuity errors : sum local = 4.77468e-11, global = -4.1747e-22, cumulative = -6.48815e-21
ExecutionTime = 407.03 s  ClockTime = 410 s

Time = 0.00061

Courant Number mean: 0.00217559 max: 0.0986281
smoothSolver:  Solving for Ux, Initial residual = 0.00362154, Final residual = 7.57667e-06, No Iterations 8
smoothSolver:  Solving for Uy, Initial residual = 0.00412671, Final residual = 8.67776e-06, No Iterations 8
DICPCG:  Solving for p, Initial residual = 0.00357543, Final residual = 0.00017641, No Iterations 668
time step continuity errors : sum local = 5.67785e-11, global = -5.76164e-22, cumulative = -7.06432e-21
DICPCG:  Solving for p, Initial residual = 0.00338115, Final residual = 0.000144461, No Iterations 1001
time step continuity errors : sum local = 4.64368e-11, global = 5.98501e-22, cumulative = -6.46582e-21
ExecutionTime = 412.9 s  ClockTime = 416 s

Time = 0.00062

Courant Number mean: 0.00219252 max: 0.0986587
smoothSolver:  Solving for Ux, Initial residual = 0.00356392, Final residual = 7.45943e-06, No Iterations 8
smoothSolver:  Solving for Uy, Initial residual = 0.00405826, Final residual = 8.53442e-06, No Iterations 8
DICPCG:  Solving for p, Initial residual = 0.00353942, Final residual = 0.000174773, No Iterations 669
time step continuity errors : sum local = 5.62311e-11, global = -1.02753e-22, cumulative = -6.56857e-21
DICPCG:  Solving for p, Initial residual = 0.00338391, Final residual = 0.000140858, No Iterations 1001
time step continuity errors : sum local = 4.52862e-11, global = -6.67675e-22, cumulative = -7.23624e-21
ExecutionTime = 418.79 s  ClockTime = 422 s

Time = 0.00063

Courant Number mean: 0.00220928 max: 0.0986886
smoothSolver:  Solving for Ux, Initial residual = 0.00350815, Final residual = 7.34579e-06, No Iterations 8
smoothSolver:  Solving for Uy, Initial residual = 0.00399204, Final residual = 8.39572e-06, No Iterations 8
DICPCG:  Solving for p, Initial residual = 0.00348063, Final residual = 0.000167766, No Iterations 667
time step continuity errors : sum local = 5.40126e-11, global = 2.3636e-22, cumulative = -6.99988e-21
DICPCG:  Solving for p, Initial residual = 0.00328886, Final residual = 0.00013763, No Iterations 1001
time step continuity errors : sum local = 4.42521e-11, global = -6.72116e-22, cumulative = -7.672e-21
ExecutionTime = 424.67 s  ClockTime = 428 s

Time = 0.00064

Courant Number mean: 0.00222589 max: 0.0987177
smoothSolver:  Solving for Ux, Initial residual = 0.00345411, Final residual = 7.23555e-06, No Iterations 8
smoothSolver:  Solving for Uy, Initial residual = 0.00392794, Final residual = 8.26144e-06, No Iterations 8
DICPCG:  Solving for p, Initial residual = 0.00345245, Final residual = 0.000169625, No Iterations 668
time step continuity errors : sum local = 5.4555e-11, global = -3.23165e-22, cumulative = -7.99517e-21
DICPCG:  Solving for p, Initial residual = 0.00330283, Final residual = 0.000134468, No Iterations 1001
time step continuity errors : sum local = 4.32405e-11, global = 9.34002e-23, cumulative = -7.90177e-21
ExecutionTime = 430.56 s  ClockTime = 433 s

Time = 0.00065

Courant Number mean: 0.00224234 max: 0.0987461
smoothSolver:  Solving for Ux, Initial residual = 0.0034017, Final residual = 7.12857e-06, No Iterations 8
smoothSolver:  Solving for Uy, Initial residual = 0.00386584, Final residual = 8.13137e-06, No Iterations 8
DICPCG:  Solving for p, Initial residual = 0.00339499, Final residual = 0.000166997, No Iterations 667
time step continuity errors : sum local = 5.37026e-11, global = 8.00526e-23, cumulative = -7.82171e-21
DICPCG:  Solving for p, Initial residual = 0.00325627, Final residual = 0.000130746, No Iterations 1001
time step continuity errors : sum local = 4.20557e-11, global = -4.09537e-22, cumulative = -8.23125e-21
ExecutionTime = 436.46 s  ClockTime = 439 s

Time = 0.00066

Courant Number mean: 0.00225865 max: 0.0987739
smoothSolver:  Solving for Ux, Initial residual = 0.00335086, Final residual = 7.02479e-06, No Iterations 8
smoothSolver:  Solving for Uy, Initial residual = 0.00380568, Final residual = 8.00533e-06, No Iterations 8
DICPCG:  Solving for p, Initial residual = 0.0033552, Final residual = 0.000159672, No Iterations 666
time step continuity errors : sum local = 5.13885e-11, global = -8.63958e-23, cumulative = -8.31765e-21
DICPCG:  Solving for p, Initial residual = 0.00321056, Final residual = 0.00012813, No Iterations 1001
time step continuity errors : sum local = 4.12148e-11, global = 3.14023e-22, cumulative = -8.00362e-21
ExecutionTime = 442.33 s  ClockTime = 445 s

Time = 0.00067

Courant Number mean: 0.00227483 max: 0.098801
smoothSolver:  Solving for Ux, Initial residual = 0.00330154, Final residual = 6.92401e-06, No Iterations 8
smoothSolver:  Solving for Uy, Initial residual = 0.00374734, Final residual = 7.88312e-06, No Iterations 8
DICPCG:  Solving for p, Initial residual = 0.00331797, Final residual = 0.00016441, No Iterations 666
time step continuity errors : sum local = 5.28315e-11, global = -2.06863e-22, cumulative = -8.21049e-21
DICPCG:  Solving for p, Initial residual = 0.00319873, Final residual = 0.000125037, No Iterations 1001
time step continuity errors : sum local = 4.02274e-11, global = -6.02832e-23, cumulative = -8.27077e-21
ExecutionTime = 448.2 s  ClockTime = 451 s

Time = 0.00068

Courant Number mean: 0.00229087 max: 0.0988275
smoothSolver:  Solving for Ux, Initial residual = 0.00325364, Final residual = 6.82606e-06, No Iterations 8
smoothSolver:  Solving for Uy, Initial residual = 0.00369076, Final residual = 7.76457e-06, No Iterations 8
DICPCG:  Solving for p, Initial residual = 0.00327293, Final residual = 0.000159331, No Iterations 666
time step continuity errors : sum local = 5.12201e-11, global = 2.49461e-22, cumulative = -8.02131e-21
DICPCG:  Solving for p, Initial residual = 0.00315645, Final residual = 0.000113223, No Iterations 1001
time step continuity errors : sum local = 3.6525e-11, global = 2.91345e-22, cumulative = -7.72996e-21
ExecutionTime = 454.12 s  ClockTime = 457 s

Time = 0.00069

Courant Number mean: 0.00230677 max: 0.0988534
smoothSolver:  Solving for Ux, Initial residual = 0.00320711, Final residual = 6.7308e-06, No Iterations 8
smoothSolver:  Solving for Uy, Initial residual = 0.00363585, Final residual = 7.64953e-06, No Iterations 8
DICPCG:  Solving for p, Initial residual = 0.00323121, Final residual = 0.000159994, No Iterations 664
time step continuity errors : sum local = 5.13943e-11, global = 4.10735e-22, cumulative = -7.31923e-21
DICPCG:  Solving for p, Initial residual = 0.00305378, Final residual = 0.000119937, No Iterations 1001
time step continuity errors : sum local = 3.85907e-11, global = -4.37109e-22, cumulative = -7.75634e-21
ExecutionTime = 459.99 s  ClockTime = 463 s

Time = 0.0007

Courant Number mean: 0.00232254 max: 0.0988787
smoothSolver:  Solving for Ux, Initial residual = 0.00316188, Final residual = 6.63822e-06, No Iterations 8
smoothSolver:  Solving for Uy, Initial residual = 0.00358255, Final residual = 7.53783e-06, No Iterations 8
DICPCG:  Solving for p, Initial residual = 0.00323567, Final residual = 0.000158162, No Iterations 663
time step continuity errors : sum local = 5.07968e-11, global = 3.37267e-22, cumulative = -7.41907e-21
DICPCG:  Solving for p, Initial residual = 0.00311307, Final residual = 0.000117117, No Iterations 1001
time step continuity errors : sum local = 3.76925e-11, global = -1.56653e-22, cumulative = -7.57572e-21
ExecutionTime = 465.91 s  ClockTime = 469 s

Time = 0.00071

Courant Number mean: 0.00233817 max: 0.0989035
smoothSolver:  Solving for Ux, Initial residual = 0.00311795, Final residual = 6.54822e-06, No Iterations 8
smoothSolver:  Solving for Uy, Initial residual = 0.00353078, Final residual = 7.42934e-06, No Iterations 8
DICPCG:  Solving for p, Initial residual = 0.00318206, Final residual = 0.000156379, No Iterations 663
time step continuity errors : sum local = 5.02137e-11, global = 1.15588e-22, cumulative = -7.46014e-21
DICPCG:  Solving for p, Initial residual = 0.00307824, Final residual = 0.000114539, No Iterations 1001
time step continuity errors : sum local = 3.68677e-11, global = -1.23419e-22, cumulative = -7.58356e-21
ExecutionTime = 471.76 s  ClockTime = 475 s

Time = 0.00072

Courant Number mean: 0.00235368 max: 0.0989278
smoothSolver:  Solving for Ux, Initial residual = 0.00307523, Final residual = 6.46063e-06, No Iterations 8
smoothSolver:  Solving for Uy, Initial residual = 0.00348047, Final residual = 7.32392e-06, No Iterations 8
DICPCG:  Solving for p, Initial residual = 0.00313878, Final residual = 0.000155397, No Iterations 664
time step continuity errors : sum local = 4.98825e-11, global = 5.51137e-22, cumulative = -7.03242e-21
DICPCG:  Solving for p, Initial residual = 0.00301421, Final residual = 0.000111971, No Iterations 1001
time step continuity errors : sum local = 3.60457e-11, global = -1.09844e-24, cumulative = -7.03352e-21
ExecutionTime = 477.63 s  ClockTime = 481 s

Time = 0.00073

Courant Number mean: 0.00236907 max: 0.0989515
smoothSolver:  Solving for Ux, Initial residual = 0.00303365, Final residual = 6.37532e-06, No Iterations 8
smoothSolver:  Solving for Uy, Initial residual = 0.00343157, Final residual = 7.22144e-06, No Iterations 8
DICPCG:  Solving for p, Initial residual = 0.00310294, Final residual = 0.000151446, No Iterations 664
time step continuity errors : sum local = 4.86272e-11, global = -2.95415e-22, cumulative = -7.32893e-21
DICPCG:  Solving for p, Initial residual = 0.00300356, Final residual = 0.000109796, No Iterations 1001
time step continuity errors : sum local = 3.53483e-11, global = -6.26462e-22, cumulative = -7.95539e-21
ExecutionTime = 483.51 s  ClockTime = 486 s

Time = 0.00074

Courant Number mean: 0.00238435 max: 0.0989748
smoothSolver:  Solving for Ux, Initial residual = 0.00299315, Final residual = 6.29219e-06, No Iterations 8
smoothSolver:  Solving for Uy, Initial residual = 0.00338401, Final residual = 7.12177e-06, No Iterations 8
DICPCG:  Solving for p, Initial residual = 0.00306319, Final residual = 0.000152557, No Iterations 663
time step continuity errors : sum local = 4.89475e-11, global = 8.76398e-23, cumulative = -7.86775e-21
DICPCG:  Solving for p, Initial residual = 0.00295376, Final residual = 0.000107525, No Iterations 1001
time step continuity errors : sum local = 3.46207e-11, global = -1.28307e-22, cumulative = -7.99606e-21
ExecutionTime = 490.21 s  ClockTime = 493 s

Time = 0.00075

Courant Number mean: 0.0023995 max: 0.0989975
smoothSolver:  Solving for Ux, Initial residual = 0.00295375, Final residual = 6.21128e-06, No Iterations 8
smoothSolver:  Solving for Uy, Initial residual = 0.00333775, Final residual = 7.02482e-06, No Iterations 8
DICPCG:  Solving for p, Initial residual = 0.00303928, Final residual = 0.000150025, No Iterations 663
time step continuity errors : sum local = 4.8135e-11, global = 2.96151e-22, cumulative = -7.69991e-21
DICPCG:  Solving for p, Initial residual = 0.00294662, Final residual = 0.000105239, No Iterations 1001
time step continuity errors : sum local = 3.38898e-11, global = -3.92528e-22, cumulative = -8.09244e-21
ExecutionTime = 496.83 s  ClockTime = 500 s

Time = 0.00076

Courant Number mean: 0.00241453 max: 0.0990198
smoothSolver:  Solving for Ux, Initial residual = 0.00291538, Final residual = 6.13244e-06, No Iterations 8
smoothSolver:  Solving for Uy, Initial residual = 0.00329273, Final residual = 6.93045e-06, No Iterations 8
DICPCG:  Solving for p, Initial residual = 0.00300184, Final residual = 0.000147237, No Iterations 663
time step continuity errors : sum local = 4.7244e-11, global = -1.24813e-22, cumulative = -8.21725e-21
DICPCG:  Solving for p, Initial residual = 0.00291145, Final residual = 0.000103171, No Iterations 1001
time step continuity errors : sum local = 3.32269e-11, global = -2.25198e-22, cumulative = -8.44245e-21
ExecutionTime = 503.47 s  ClockTime = 506 s

Time = 0.00077

Courant Number mean: 0.00242944 max: 0.0990417
smoothSolver:  Solving for Ux, Initial residual = 0.002878, Final residual = 6.05558e-06, No Iterations 8
smoothSolver:  Solving for Uy, Initial residual = 0.0032489, Final residual = 6.83858e-06, No Iterations 8
DICPCG:  Solving for p, Initial residual = 0.0029706, Final residual = 0.000143152, No Iterations 662
time step continuity errors : sum local = 4.59483e-11, global = 3.17233e-22, cumulative = -8.12522e-21
DICPCG:  Solving for p, Initial residual = 0.00286496, Final residual = 0.000101015, No Iterations 1001
time step continuity errors : sum local = 3.25372e-11, global = -3.99695e-22, cumulative = -8.52491e-21
ExecutionTime = 510.11 s  ClockTime = 513 s

Time = 0.00078

Courant Number mean: 0.00244424 max: 0.0990631
smoothSolver:  Solving for Ux, Initial residual = 0.00284155, Final residual = 5.98061e-06, No Iterations 8
smoothSolver:  Solving for Uy, Initial residual = 0.00320622, Final residual = 6.74911e-06, No Iterations 8
DICPCG:  Solving for p, Initial residual = 0.0029483, Final residual = 0.000144305, No Iterations 662
time step continuity errors : sum local = 4.62861e-11, global = 1.10283e-23, cumulative = -8.51388e-21
DICPCG:  Solving for p, Initial residual = 0.00286328, Final residual = 9.90398e-05, No Iterations 1001
time step continuity errors : sum local = 3.19043e-11, global = 1.72974e-22, cumulative = -8.34091e-21
ExecutionTime = 516.75 s  ClockTime = 520 s

Time = 0.00079

Courant Number mean: 0.00245895 max: 0.0990841
smoothSolver:  Solving for Ux, Initial residual = 0.00280601, Final residual = 5.90747e-06, No Iterations 8
smoothSolver:  Solving for Uy, Initial residual = 0.00316463, Final residual = 6.66194e-06, No Iterations 8
DICPCG:  Solving for p, Initial residual = 0.00291308, Final residual = 0.000142325, No Iterations 662
time step continuity errors : sum local = 4.56487e-11, global = -1.11662e-22, cumulative = -8.45257e-21
DICPCG:  Solving for p, Initial residual = 0.00283058, Final residual = 9.7035e-05, No Iterations 1001
time step continuity errors : sum local = 3.12627e-11, global = -2.22515e-23, cumulative = -8.47482e-21
ExecutionTime = 523.4 s  ClockTime = 526 s

Time = 0.0008

Courant Number mean: 0.00247354 max: 0.0991047
smoothSolver:  Solving for Ux, Initial residual = 0.00277136, Final residual = 5.83612e-06, No Iterations 8
smoothSolver:  Solving for Uy, Initial residual = 0.00312411, Final residual = 6.57698e-06, No Iterations 8
DICPCG:  Solving for p, Initial residual = 0.00288388, Final residual = 0.00014069, No Iterations 662
time step continuity errors : sum local = 4.51191e-11, global = -2.20835e-22, cumulative = -8.69566e-21
DICPCG:  Solving for p, Initial residual = 0.00280137, Final residual = 9.21604e-05, No Iterations 1001
time step continuity errors : sum local = 2.97267e-11, global = -7.73705e-22, cumulative = -9.46936e-21
ExecutionTime = 530.02 s  ClockTime = 533 s

Time = 0.00081

Courant Number mean: 0.00248803 max: 0.0991249
smoothSolver:  Solving for Ux, Initial residual = 0.00273756, Final residual = 5.76647e-06, No Iterations 8
smoothSolver:  Solving for Uy, Initial residual = 0.0030846, Final residual = 6.49416e-06, No Iterations 8
DICPCG:  Solving for p, Initial residual = 0.00285568, Final residual = 0.000141239, No Iterations 661
time step continuity errors : sum local = 4.52696e-11, global = 1.03355e-22, cumulative = -9.36601e-21
DICPCG:  Solving for p, Initial residual = 0.00276178, Final residual = 9.37108e-05, No Iterations 1001
time step continuity errors : sum local = 3.01946e-11, global = 2.22663e-23, cumulative = -9.34374e-21
ExecutionTime = 536.67 s  ClockTime = 540 s

Time = 0.00082

Courant Number mean: 0.00250241 max: 0.0991448
smoothSolver:  Solving for Ux, Initial residual = 0.00270457, Final residual = 5.69847e-06, No Iterations 8
smoothSolver:  Solving for Uy, Initial residual = 0.00304607, Final residual = 6.41339e-06, No Iterations 8
DICPCG:  Solving for p, Initial residual = 0.00283752, Final residual = 0.000141115, No Iterations 660
time step continuity errors : sum local = 4.52124e-11, global = 2.3441e-23, cumulative = -9.3203e-21
DICPCG:  Solving for p, Initial residual = 0.00275322, Final residual = 9.14072e-05, No Iterations 1001
time step continuity errors : sum local = 2.94615e-11, global = 3.19995e-23, cumulative = -9.2883e-21
ExecutionTime = 543.3 s  ClockTime = 546 s

Time = 0.00083

Courant Number mean: 0.00251669 max: 0.0991642
smoothSolver:  Solving for Ux, Initial residual = 0.00267235, Final residual = 5.63204e-06, No Iterations 8
smoothSolver:  Solving for Uy, Initial residual = 0.00300849, Final residual = 6.3346e-06, No Iterations 8
DICPCG:  Solving for p, Initial residual = 0.00280998, Final residual = 0.000138849, No Iterations 660
time step continuity errors : sum local = 4.44868e-11, global = -1.56829e-22, cumulative = -9.44513e-21
DICPCG:  Solving for p, Initial residual = 0.0027337, Final residual = 9.06847e-05, No Iterations 1001
time step continuity errors : sum local = 2.92214e-11, global = -4.21785e-22, cumulative = -9.86692e-21
ExecutionTime = 549.92 s  ClockTime = 553 s

Time = 0.00084

Courant Number mean: 0.00253087 max: 0.0991833
smoothSolver:  Solving for Ux, Initial residual = 0.00264092, Final residual = 5.56719e-06, No Iterations 8
smoothSolver:  Solving for Uy, Initial residual = 0.00297182, Final residual = 6.25771e-06, No Iterations 8
DICPCG:  Solving for p, Initial residual = 0.00278394, Final residual = 0.000137995, No Iterations 659
time step continuity errors : sum local = 4.42029e-11, global = 9.01325e-23, cumulative = -9.77678e-21
DICPCG:  Solving for p, Initial residual = 0.00270401, Final residual = 8.65888e-05, No Iterations 1001
time step continuity errors : sum local = 2.79297e-11, global = -2.11467e-22, cumulative = -9.98825e-21
ExecutionTime = 556.54 s  ClockTime = 559 s

Time = 0.00085

Courant Number mean: 0.00254496 max: 0.0992021
smoothSolver:  Solving for Ux, Initial residual = 0.00261021, Final residual = 5.50382e-06, No Iterations 8
smoothSolver:  Solving for Uy, Initial residual = 0.00293603, Final residual = 6.18266e-06, No Iterations 8
DICPCG:  Solving for p, Initial residual = 0.00276092, Final residual = 0.00013669, No Iterations 659
time step continuity errors : sum local = 4.37784e-11, global = -3.44441e-22, cumulative = -1.03327e-20
DICPCG:  Solving for p, Initial residual = 0.00268933, Final residual = 8.6957e-05, No Iterations 1001
time step continuity errors : sum local = 2.80305e-11, global = -5.69104e-22, cumulative = -1.09018e-20
ExecutionTime = 563.18 s  ClockTime = 566 s

Time = 0.00086

Courant Number mean: 0.00255895 max: 0.0992205
smoothSolver:  Solving for Ux, Initial residual = 0.0025802, Final residual = 5.44185e-06, No Iterations 8
smoothSolver:  Solving for Uy, Initial residual = 0.00290108, Final residual = 6.10938e-06, No Iterations 8
DICPCG:  Solving for p, Initial residual = 0.00273547, Final residual = 0.000136365, No Iterations 658
time step continuity errors : sum local = 4.36609e-11, global = -2.9852e-22, cumulative = -1.12003e-20
DICPCG:  Solving for p, Initial residual = 0.00265965, Final residual = 8.48401e-05, No Iterations 1001
time step continuity errors : sum local = 2.73567e-11, global = -4.00117e-22, cumulative = -1.16004e-20
ExecutionTime = 569.8 s  ClockTime = 573 s

Time = 0.00087

Courant Number mean: 0.00257285 max: 0.0992386
smoothSolver:  Solving for Ux, Initial residual = 0.00255086, Final residual = 5.38125e-06, No Iterations 8
smoothSolver:  Solving for Uy, Initial residual = 0.00286695, Final residual = 6.03782e-06, No Iterations 8
DICPCG:  Solving for p, Initial residual = 0.00271372, Final residual = 0.000134414, No Iterations 658
time step continuity errors : sum local = 4.30356e-11, global = 1.04521e-22, cumulative = -1.14959e-20
DICPCG:  Solving for p, Initial residual = 0.00264712, Final residual = 8.42087e-05, No Iterations 1001
time step continuity errors : sum local = 2.71466e-11, global = -5.3464e-22, cumulative = -1.20306e-20
ExecutionTime = 576.44 s  ClockTime = 579 s

Time = 0.00088

Courant Number mean: 0.00258665 max: 0.0992564
smoothSolver:  Solving for Ux, Initial residual = 0.00252218, Final residual = 5.32197e-06, No Iterations 8
smoothSolver:  Solving for Uy, Initial residual = 0.00283361, Final residual = 5.9679e-06, No Iterations 8
DICPCG:  Solving for p, Initial residual = 0.00268968, Final residual = 0.000131964, No Iterations 658
time step continuity errors : sum local = 4.22569e-11, global = -1.76532e-22, cumulative = -1.22071e-20
DICPCG:  Solving for p, Initial residual = 0.0026208, Final residual = 7.80555e-05, No Iterations 1001
time step continuity errors : sum local = 2.52139e-11, global = 2.27645e-22, cumulative = -1.19794e-20
ExecutionTime = 583.07 s  ClockTime = 586 s

Time = 0.00089

Courant Number mean: 0.00260036 max: 0.0992739
smoothSolver:  Solving for Ux, Initial residual = 0.00249416, Final residual = 5.26403e-06, No Iterations 8
smoothSolver:  Solving for Uy, Initial residual = 0.00280103, Final residual = 5.89958e-06, No Iterations 8
DICPCG:  Solving for p, Initial residual = 0.00266307, Final residual = 0.000130982, No Iterations 655
time step continuity errors : sum local = 4.19326e-11, global = -4.63925e-22, cumulative = -1.24434e-20
DICPCG:  Solving for p, Initial residual = 0.00253371, Final residual = 7.53255e-05, No Iterations 1001
time step continuity errors : sum local = 2.43494e-11, global = 6.94438e-23, cumulative = -1.23739e-20
ExecutionTime = 589.67 s  ClockTime = 593 s

Time = 0.0009

Courant Number mean: 0.00261398 max: 0.0992911
smoothSolver:  Solving for Ux, Initial residual = 0.00246676, Final residual = 5.20736e-06, No Iterations 8
smoothSolver:  Solving for Uy, Initial residual = 0.00276919, Final residual = 5.83281e-06, No Iterations 8
DICPCG:  Solving for p, Initial residual = 0.00266842, Final residual = 0.00013047, No Iterations 657
time step continuity errors : sum local = 4.17599e-11, global = 5.78749e-23, cumulative = -1.2316e-20
DICPCG:  Solving for p, Initial residual = 0.00254002, Final residual = 7.96211e-05, No Iterations 1001
time step continuity errors : sum local = 2.56772e-11, global = -4.34932e-22, cumulative = -1.2751e-20
ExecutionTime = 596.28 s  ClockTime = 599 s

Time = 0.00091

Courant Number mean: 0.00262752 max: 0.099308
smoothSolver:  Solving for Ux, Initial residual = 0.00243995, Final residual = 5.15188e-06, No Iterations 8
smoothSolver:  Solving for Uy, Initial residual = 0.00273806, Final residual = 5.76751e-06, No Iterations 8
DICPCG:  Solving for p, Initial residual = 0.00263176, Final residual = 0.000130622, No Iterations 656
time step continuity errors : sum local = 4.17951e-11, global = 3.20244e-22, cumulative = -1.24307e-20
DICPCG:  Solving for p, Initial residual = 0.00256161, Final residual = 7.5875e-05, No Iterations 1001
time step continuity errors : sum local = 2.44979e-11, global = -6.05312e-22, cumulative = -1.3036e-20
ExecutionTime = 602.86 s  ClockTime = 606 s

Time = 0.00092

Courant Number mean: 0.00264097 max: 0.0993246
smoothSolver:  Solving for Ux, Initial residual = 0.00241369, Final residual = 5.09755e-06, No Iterations 8
smoothSolver:  Solving for Uy, Initial residual = 0.00270761, Final residual = 5.70366e-06, No Iterations 8
DICPCG:  Solving for p, Initial residual = 0.00260048, Final residual = 0.000125889, No Iterations 657
time step continuity errors : sum local = 4.03024e-11, global = 2.48662e-22, cumulative = -1.27874e-20
DICPCG:  Solving for p, Initial residual = 0.00253121, Final residual = 7.71467e-05, No Iterations 1001
time step continuity errors : sum local = 2.48821e-11, global = 6.4274e-22, cumulative = -1.21446e-20
ExecutionTime = 609.47 s  ClockTime = 612 s

Time = 0.00093

Courant Number mean: 0.00265434 max: 0.0993409
smoothSolver:  Solving for Ux, Initial residual = 0.002388, Final residual = 5.04434e-06, No Iterations 8
smoothSolver:  Solving for Uy, Initial residual = 0.00267783, Final residual = 5.6412e-06, No Iterations 8
DICPCG:  Solving for p, Initial residual = 0.00257902, Final residual = 0.000126586, No Iterations 656
time step continuity errors : sum local = 4.05074e-11, global = 7.4388e-22, cumulative = -1.14008e-20
DICPCG:  Solving for p, Initial residual = 0.00251119, Final residual = 7.58334e-05, No Iterations 1001
time step continuity errors : sum local = 2.44615e-11, global = -1.22479e-22, cumulative = -1.15232e-20
ExecutionTime = 616.07 s  ClockTime = 619 s

Time = 0.00094

Courant Number mean: 0.00266762 max: 0.099357
smoothSolver:  Solving for Ux, Initial residual = 0.00236286, Final residual = 4.99224e-06, No Iterations 8
smoothSolver:  Solving for Uy, Initial residual = 0.0026487, Final residual = 5.5801e-06, No Iterations 8
DICPCG:  Solving for p, Initial residual = 0.00255844, Final residual = 0.000126824, No Iterations 655
time step continuity errors : sum local = 4.05675e-11, global = -1.78515e-22, cumulative = -1.17018e-20
DICPCG:  Solving for p, Initial residual = 0.0024891, Final residual = 7.43308e-05, No Iterations 1001
time step continuity errors : sum local = 2.39812e-11, global = -3.23537e-22, cumulative = -1.20253e-20
ExecutionTime = 622.67 s  ClockTime = 626 s

Time = 0.00095

Courant Number mean: 0.00268082 max: 0.0993728
smoothSolver:  Solving for Ux, Initial residual = 0.00233824, Final residual = 4.94124e-06, No Iterations 8
smoothSolver:  Solving for Uy, Initial residual = 0.00262019, Final residual = 5.52029e-06, No Iterations 8
DICPCG:  Solving for p, Initial residual = 0.00253932, Final residual = 0.000125575, No Iterations 655
time step continuity errors : sum local = 4.01648e-11, global = -2.18598e-22, cumulative = -1.22439e-20
DICPCG:  Solving for p, Initial residual = 0.00248701, Final residual = 6.8579e-05, No Iterations 1001
time step continuity errors : sum local = 2.21747e-11, global = 5.08347e-22, cumulative = -1.17355e-20
ExecutionTime = 629.29 s  ClockTime = 632 s

Time = 0.00096

Courant Number mean: 0.00269394 max: 0.0993883
smoothSolver:  Solving for Ux, Initial residual = 0.00231413, Final residual = 4.89126e-06, No Iterations 8
smoothSolver:  Solving for Uy, Initial residual = 0.00259228, Final residual = 5.46175e-06, No Iterations 8
DICPCG:  Solving for p, Initial residual = 0.00251439, Final residual = 0.000123702, No Iterations 655
time step continuity errors : sum local = 3.95673e-11, global = 2.98176e-22, cumulative = -1.14374e-20
DICPCG:  Solving for p, Initial residual = 0.00246151, Final residual = 7.21194e-05, No Iterations 1001
time step continuity errors : sum local = 2.32698e-11, global = 1.41525e-22, cumulative = -1.12958e-20
ExecutionTime = 635.91 s  ClockTime = 639 s

Time = 0.00097

Courant Number mean: 0.00270697 max: 0.0994036
smoothSolver:  Solving for Ux, Initial residual = 0.0022905, Final residual = 4.84228e-06, No Iterations 8
smoothSolver:  Solving for Uy, Initial residual = 0.00256495, Final residual = 5.40443e-06, No Iterations 8
DICPCG:  Solving for p, Initial residual = 0.00250356, Final residual = 0.000124107, No Iterations 654
time step continuity errors : sum local = 3.96822e-11, global = -4.31759e-23, cumulative = -1.1339e-20
DICPCG:  Solving for p, Initial residual = 0.00244379, Final residual = 6.66389e-05, No Iterations 1001
time step continuity errors : sum local = 2.15488e-11, global = 7.45019e-23, cumulative = -1.12645e-20
ExecutionTime = 642.5 s  ClockTime = 645 s

Time = 0.00098

Courant Number mean: 0.00271994 max: 0.0994187
smoothSolver:  Solving for Ux, Initial residual = 0.00226736, Final residual = 4.79426e-06, No Iterations 8
smoothSolver:  Solving for Uy, Initial residual = 0.00253819, Final residual = 5.3483e-06, No Iterations 8
DICPCG:  Solving for p, Initial residual = 0.00248448, Final residual = 0.000123397, No Iterations 654
time step continuity errors : sum local = 3.94481e-11, global = -7.05211e-22, cumulative = -1.19697e-20
DICPCG:  Solving for p, Initial residual = 0.00243374, Final residual = 6.9735e-05, No Iterations 1001
time step continuity errors : sum local = 2.25057e-11, global = -4.13288e-23, cumulative = -1.20111e-20
ExecutionTime = 649.1 s  ClockTime = 652 s

Time = 0.00099

Courant Number mean: 0.00273282 max: 0.0994335
smoothSolver:  Solving for Ux, Initial residual = 0.00224468, Final residual = 4.74718e-06, No Iterations 8
smoothSolver:  Solving for Uy, Initial residual = 0.00251198, Final residual = 5.29332e-06, No Iterations 8
DICPCG:  Solving for p, Initial residual = 0.00246704, Final residual = 0.00012091, No Iterations 654
time step continuity errors : sum local = 3.86613e-11, global = 2.81649e-23, cumulative = -1.19829e-20
DICPCG:  Solving for p, Initial residual = 0.00241271, Final residual = 6.91191e-05, No Iterations 1001
time step continuity errors : sum local = 2.23036e-11, global = -2.02663e-22, cumulative = -1.21856e-20
ExecutionTime = 655.72 s  ClockTime = 659 s

Time = 0.001

Courant Number mean: 0.00274564 max: 0.0994481
smoothSolver:  Solving for Ux, Initial residual = 0.00222244, Final residual = 4.70103e-06, No Iterations 8
smoothSolver:  Solving for Uy, Initial residual = 0.00248631, Final residual = 5.23945e-06, No Iterations 8
DICPCG:  Solving for p, Initial residual = 0.00244767, Final residual = 0.000121347, No Iterations 653
time step continuity errors : sum local = 3.87854e-11, global = -1.30974e-22, cumulative = -1.23165e-20
DICPCG:  Solving for p, Initial residual = 0.00238102, Final residual = 6.7743e-05, No Iterations 1001
time step continuity errors : sum local = 2.18646e-11, global = -4.75833e-22, cumulative = -1.27924e-20
ExecutionTime = 662.32 s  ClockTime = 665 s

End

Finalising parallel run
