Mon May 28 11:12:12 -03 2018
/*---------------------------------------------------------------------------*\
| =========                 |                                                 |
| \\      /  F ield         | OpenFOAM: The Open Source CFD Toolbox           |
|  \\    /   O peration     | Version:  v1712                                 |
|   \\  /    A nd           | Web:      www.OpenFOAM.com                      |
|    \\/     M anipulation  |                                                 |
\*---------------------------------------------------------------------------*/
Build  : v1712
Arch   : "LSB;label=32;scalar=64"
Exec   : icoFoam -parallel
Date   : May 28 2018
Time   : 11:12:14
Host   : "n1"
PID    : 12847
I/O    : uncollated
Case   : /home/admceltab/OpenFOAM-v1712/tutorials/incompressible/icoFoam/cavityParallel/cavity/cavityParallel
nProcs : 16
Hosts  :
(
    (n1 4)
    (n2 4)
    (n3 4)
    (n4 4)
)
Pstream initialized with:
    floatTransfer      : 0
    nProcsSimpleSum    : 0
    commsType          : nonBlocking
    polling iterations : 0
trapFpe: Floating point exception trapping enabled (FOAM_SIGFPE).
fileModificationChecking : Monitoring run-time modified files using timeStampMaster (fileModificationSkew 10)
allowSystemOperations : Allowing user-supplied system call operations

// * * * * * * * * * * * * * * * * * * * * * * * * * * * * * * * * * * * * * //
Create time

Create mesh for time = 0


PISO: Operating solver in PISO mode

Reading transportProperties

Reading field p

Reading field U

Reading/calculating face flux field phi


Starting time loop

Time = 1e-05

Courant Number mean: 0 max: 0
smoothSolver:  Solving for Ux, Initial residual = 1, Final residual = 8.7203e-06, No Iterations 5
smoothSolver:  Solving for Uy, Initial residual = 0, Final residual = 0, No Iterations 0
DICPCG:  Solving for p, Initial residual = 1, Final residual = 0.0483456, No Iterations 736
time step continuity errors : sum local = 6.9199e-09, global = 6.28244e-23, cumulative = 6.28244e-23
DICPCG:  Solving for p, Initial residual = 0.286602, Final residual = 3.59344e-06, No Iterations 1001
time step continuity errors : sum local = 1.05683e-12, global = 2.62247e-23, cumulative = 8.90491e-23
ExecutionTime = 2.33 s  ClockTime = 3 s

Time = 2e-05

Courant Number mean: 9.48805e-05 max: 0.0153727
smoothSolver:  Solving for Ux, Initial residual = 0.287119, Final residual = 6.98249e-06, No Iterations 5
smoothSolver:  Solving for Uy, Initial residual = 0.331341, Final residual = 1.82677e-06, No Iterations 6
DICPCG:  Solving for p, Initial residual = 0.16751, Final residual = 0.00802175, No Iterations 732
time step continuity errors : sum local = 2.28358e-09, global = -1.03398e-25, cumulative = 8.89457e-23
DICPCG:  Solving for p, Initial residual = 0.0728348, Final residual = 9.58669e-07, No Iterations 993
time step continuity errors : sum local = 2.90768e-13, global = -3.67527e-23, cumulative = 5.2193e-23
ExecutionTime = 4.32 s  ClockTime = 5 s

Time = 3e-05

Courant Number mean: 0.000165071 max: 0.0245046
smoothSolver:  Solving for Ux, Initial residual = 0.1492, Final residual = 3.82166e-06, No Iterations 5
smoothSolver:  Solving for Uy, Initial residual = 0.17447, Final residual = 6.14383e-06, No Iterations 5
DICPCG:  Solving for p, Initial residual = 0.083435, Final residual = 0.00398677, No Iterations 734
time step continuity errors : sum local = 1.25847e-09, global = 3.55287e-23, cumulative = 8.77217e-23
DICPCG:  Solving for p, Initial residual = 0.0399826, Final residual = 9.90302e-07, No Iterations 950
time step continuity errors : sum local = 3.25138e-13, global = -1.06191e-22, cumulative = -1.84697e-23
ExecutionTime = 6.27 s  ClockTime = 7 s

Time = 4e-05

Courant Number mean: 0.000219987 max: 0.0301337
smoothSolver:  Solving for Ux, Initial residual = 0.0948623, Final residual = 2.54445e-06, No Iterations 5
smoothSolver:  Solving for Uy, Initial residual = 0.110872, Final residual = 3.91757e-06, No Iterations 5
DICPCG:  Solving for p, Initial residual = 0.0511194, Final residual = 0.00242363, No Iterations 734
time step continuity errors : sum local = 8.18369e-10, global = 1.74542e-23, cumulative = -1.01555e-24
DICPCG:  Solving for p, Initial residual = 0.0250904, Final residual = 9.99809e-07, No Iterations 933
time step continuity errors : sum local = 3.46104e-13, global = -2.64188e-22, cumulative = -2.65204e-22
ExecutionTime = 8.2 s  ClockTime = 9 s

Time = 5e-05

Courant Number mean: 0.000265172 max: 0.0337531
smoothSolver:  Solving for Ux, Initial residual = 0.0676238, Final residual = 1.88804e-06, No Iterations 5
smoothSolver:  Solving for Uy, Initial residual = 0.0786658, Final residual = 2.7879e-06, No Iterations 5
DICPCG:  Solving for p, Initial residual = 0.0358625, Final residual = 0.00177491, No Iterations 732
time step continuity errors : sum local = 6.27301e-10, global = -9.27437e-23, cumulative = -3.57948e-22
DICPCG:  Solving for p, Initial residual = 0.0161707, Final residual = 9.86572e-07, No Iterations 917
time step continuity errors : sum local = 3.55129e-13, global = -1.07634e-22, cumulative = -4.65581e-22
ExecutionTime = 10.11 s  ClockTime = 10 s

Time = 6e-05

Courant Number mean: 0.000303819 max: 0.0361877
smoothSolver:  Solving for Ux, Initial residual = 0.051955, Final residual = 1.49865e-06, No Iterations 5
smoothSolver:  Solving for Uy, Initial residual = 0.0600777, Final residual = 2.13446e-06, No Iterations 5
DICPCG:  Solving for p, Initial residual = 0.0256069, Final residual = 0.00126396, No Iterations 731
time step continuity errors : sum local = 4.62331e-10, global = 7.58689e-23, cumulative = -3.89712e-22
DICPCG:  Solving for p, Initial residual = 0.011552, Final residual = 9.68442e-07, No Iterations 910
time step continuity errors : sum local = 3.59173e-13, global = 1.35979e-22, cumulative = -2.53734e-22
ExecutionTime = 12 s  ClockTime = 12 s

Time = 7e-05

Courant Number mean: 0.000337789 max: 0.0379015
smoothSolver:  Solving for Ux, Initial residual = 0.0420172, Final residual = 8.73312e-06, No Iterations 4
smoothSolver:  Solving for Uy, Initial residual = 0.0483119, Final residual = 1.71992e-06, No Iterations 5
DICPCG:  Solving for p, Initial residual = 0.0196645, Final residual = 0.000935069, No Iterations 731
time step continuity errors : sum local = 3.51148e-10, global = -1.45206e-23, cumulative = -2.68254e-22
DICPCG:  Solving for p, Initial residual = 0.00893378, Final residual = 9.82556e-07, No Iterations 891
time step continuity errors : sum local = 3.72924e-13, global = -1.30083e-22, cumulative = -3.98338e-22
ExecutionTime = 13.88 s  ClockTime = 14 s

Time = 8e-05

Courant Number mean: 0.000368425 max: 0.0391614
smoothSolver:  Solving for Ux, Initial residual = 0.0352622, Final residual = 7.49008e-06, No Iterations 4
smoothSolver:  Solving for Uy, Initial residual = 0.0403209, Final residual = 1.43783e-06, No Iterations 5
DICPCG:  Solving for p, Initial residual = 0.0159462, Final residual = 0.000789822, No Iterations 729
time step continuity errors : sum local = 3.02623e-10, global = 1.40062e-23, cumulative = -3.84331e-22
DICPCG:  Solving for p, Initial residual = 0.00698873, Final residual = 9.80252e-07, No Iterations 883
time step continuity errors : sum local = 3.78743e-13, global = 9.30145e-23, cumulative = -2.91317e-22
ExecutionTime = 15.76 s  ClockTime = 16 s

Time = 9e-05

Courant Number mean: 0.000396485 max: 0.0401249
smoothSolver:  Solving for Ux, Initial residual = 0.0303855, Final residual = 6.56947e-06, No Iterations 4
smoothSolver:  Solving for Uy, Initial residual = 0.0345844, Final residual = 8.61397e-06, No Iterations 4
DICPCG:  Solving for p, Initial residual = 0.0124448, Final residual = 0.000613641, No Iterations 729
time step continuity errors : sum local = 2.3874e-10, global = 1.91729e-22, cumulative = -9.95882e-23
DICPCG:  Solving for p, Initial residual = 0.00582961, Final residual = 9.79487e-07, No Iterations 877
time step continuity errors : sum local = 3.8341e-13, global = 3.54342e-23, cumulative = -6.4154e-23
ExecutionTime = 17.64 s  ClockTime = 18 s

Time = 0.0001

Courant Number mean: 0.000422461 max: 0.0408875
smoothSolver:  Solving for Ux, Initial residual = 0.0267212, Final residual = 5.85925e-06, No Iterations 4
smoothSolver:  Solving for Uy, Initial residual = 0.030281, Final residual = 7.54982e-06, No Iterations 4
DICPCG:  Solving for p, Initial residual = 0.00972928, Final residual = 0.000465495, No Iterations 730
time step continuity errors : sum local = 1.83075e-10, global = 1.56602e-22, cumulative = 9.24481e-23
DICPCG:  Solving for p, Initial residual = 0.00479842, Final residual = 9.88449e-07, No Iterations 866
time step continuity errors : sum local = 3.90628e-13, global = -3.09796e-22, cumulative = -2.17348e-22
ExecutionTime = 19.5 s  ClockTime = 20 s

Time = 0.00011

Courant Number mean: 0.000446738 max: 0.0415087
smoothSolver:  Solving for Ux, Initial residual = 0.0238649, Final residual = 5.29596e-06, No Iterations 4
smoothSolver:  Solving for Uy, Initial residual = 0.026937, Final residual = 6.72182e-06, No Iterations 4
DICPCG:  Solving for p, Initial residual = 0.00831198, Final residual = 0.000406563, No Iterations 729
time step continuity errors : sum local = 1.61258e-10, global = -1.04711e-22, cumulative = -3.22059e-22
DICPCG:  Solving for p, Initial residual = 0.0042011, Final residual = 9.8009e-07, No Iterations 862
time step continuity errors : sum local = 3.90342e-13, global = 7.90507e-23, cumulative = -2.43008e-22
ExecutionTime = 21.35 s  ClockTime = 22 s

Time = 0.00012

Courant Number mean: 0.000469686 max: 0.042027
smoothSolver:  Solving for Ux, Initial residual = 0.0215695, Final residual = 4.83575e-06, No Iterations 4
smoothSolver:  Solving for Uy, Initial residual = 0.0242638, Final residual = 6.05918e-06, No Iterations 4
DICPCG:  Solving for p, Initial residual = 0.00739521, Final residual = 0.00036159, No Iterations 728
time step continuity errors : sum local = 1.44474e-10, global = -4.11403e-23, cumulative = -2.84149e-22
DICPCG:  Solving for p, Initial residual = 0.00375054, Final residual = 9.94304e-07, No Iterations 859
time step continuity errors : sum local = 3.98657e-13, global = 2.974e-22, cumulative = 1.32516e-23
ExecutionTime = 23.18 s  ClockTime = 24 s

Time = 0.00013

Courant Number mean: 0.000491451 max: 0.042468
smoothSolver:  Solving for Ux, Initial residual = 0.019688, Final residual = 4.45148e-06, No Iterations 4
smoothSolver:  Solving for Uy, Initial residual = 0.0220772, Final residual = 5.51668e-06, No Iterations 4
DICPCG:  Solving for p, Initial residual = 0.00655265, Final residual = 0.000320216, No Iterations 727
time step continuity errors : sum local = 1.2876e-10, global = -3.45282e-22, cumulative = -3.3203e-22
DICPCG:  Solving for p, Initial residual = 0.00337152, Final residual = 9.95627e-07, No Iterations 856
time step continuity errors : sum local = 4.01514e-13, global = 2.7364e-22, cumulative = -5.83894e-23
ExecutionTime = 25.01 s  ClockTime = 25 s

Time = 0.00014

Courant Number mean: 0.000512174 max: 0.0428494
smoothSolver:  Solving for Ux, Initial residual = 0.0181141, Final residual = 4.12588e-06, No Iterations 4
smoothSolver:  Solving for Uy, Initial residual = 0.0202547, Final residual = 5.06415e-06, No Iterations 4
DICPCG:  Solving for p, Initial residual = 0.00586635, Final residual = 0.000281097, No Iterations 727
time step continuity errors : sum local = 1.13654e-10, global = -4.69869e-23, cumulative = -1.05376e-22
DICPCG:  Solving for p, Initial residual = 0.00305254, Final residual = 9.77833e-07, No Iterations 854
time step continuity errors : sum local = 3.96368e-13, global = 8.56955e-23, cumulative = -1.96808e-23
ExecutionTime = 26.88 s  ClockTime = 27 s

Time = 0.00015

Courant Number mean: 0.000531963 max: 0.0431836
smoothSolver:  Solving for Ux, Initial residual = 0.0167761, Final residual = 3.84689e-06, No Iterations 4
smoothSolver:  Solving for Uy, Initial residual = 0.0187118, Final residual = 4.68077e-06, No Iterations 4
DICPCG:  Solving for p, Initial residual = 0.00528783, Final residual = 0.000254552, No Iterations 726
time step continuity errors : sum local = 1.03419e-10, global = -3.86618e-24, cumulative = -2.3547e-23
DICPCG:  Solving for p, Initial residual = 0.00278226, Final residual = 9.84115e-07, No Iterations 850
time step continuity errors : sum local = 4.00715e-13, global = 1.06632e-22, cumulative = 8.30845e-23
ExecutionTime = 28.7 s  ClockTime = 29 s

Time = 0.00016

Courant Number mean: 0.000550992 max: 0.0434798
smoothSolver:  Solving for Ux, Initial residual = 0.0156275, Final residual = 3.60426e-06, No Iterations 4
smoothSolver:  Solving for Uy, Initial residual = 0.0173883, Final residual = 4.35171e-06, No Iterations 4
DICPCG:  Solving for p, Initial residual = 0.00480747, Final residual = 0.00023952, No Iterations 725
time step continuity errors : sum local = 9.773e-11, global = -4.52293e-23, cumulative = 3.78552e-23
DICPCG:  Solving for p, Initial residual = 0.00255764, Final residual = 9.62796e-07, No Iterations 848
time step continuity errors : sum local = 3.93596e-13, global = -4.51854e-22, cumulative = -4.13999e-22
ExecutionTime = 30.5 s  ClockTime = 31 s

Time = 0.00017

Courant Number mean: 0.000569336 max: 0.0437447
smoothSolver:  Solving for Ux, Initial residual = 0.0146283, Final residual = 3.3909e-06, No Iterations 4
smoothSolver:  Solving for Uy, Initial residual = 0.0162402, Final residual = 4.06611e-06, No Iterations 4
DICPCG:  Solving for p, Initial residual = 0.004424, Final residual = 0.000218205, No Iterations 721
time step continuity errors : sum local = 8.9385e-11, global = -2.88582e-22, cumulative = -7.02582e-22
DICPCG:  Solving for p, Initial residual = 0.00235818, Final residual = 9.64565e-07, No Iterations 846
time step continuity errors : sum local = 3.95712e-13, global = -1.06705e-22, cumulative = -8.09287e-22
ExecutionTime = 32.23 s  ClockTime = 33 s

Time = 0.00018

Courant Number mean: 0.000587036 max: 0.0439835
smoothSolver:  Solving for Ux, Initial residual = 0.0137495, Final residual = 3.20182e-06, No Iterations 4
smoothSolver:  Solving for Uy, Initial residual = 0.0152346, Final residual = 3.81584e-06, No Iterations 4
DICPCG:  Solving for p, Initial residual = 0.00409307, Final residual = 0.000201181, No Iterations 722
time step continuity errors : sum local = 8.26888e-11, global = -2.24653e-22, cumulative = -1.03394e-21
DICPCG:  Solving for p, Initial residual = 0.00221812, Final residual = 9.70675e-07, No Iterations 841
time step continuity errors : sum local = 3.99513e-13, global = -2.00859e-22, cumulative = -1.2348e-21
ExecutionTime = 33.97 s  ClockTime = 34 s

Time = 0.00019

Courant Number mean: 0.000604142 max: 0.0442003
smoothSolver:  Solving for Ux, Initial residual = 0.0129704, Final residual = 3.03361e-06, No Iterations 4
smoothSolver:  Solving for Uy, Initial residual = 0.0143464, Final residual = 3.59471e-06, No Iterations 4
DICPCG:  Solving for p, Initial residual = 0.00379221, Final residual = 0.000186649, No Iterations 722
time step continuity errors : sum local = 7.69533e-11, global = -1.7487e-22, cumulative = -1.40967e-21
DICPCG:  Solving for p, Initial residual = 0.00208478, Final residual = 9.73308e-07, No Iterations 839
time step continuity errors : sum local = 4.01788e-13, global = 1.53003e-22, cumulative = -1.25667e-21
ExecutionTime = 35.76 s  ClockTime = 36 s

Time = 0.0002

Courant Number mean: 0.000620698 max: 0.0443983
smoothSolver:  Solving for Ux, Initial residual = 0.0122777, Final residual = 2.8826e-06, No Iterations 4
smoothSolver:  Solving for Uy, Initial residual = 0.0135562, Final residual = 3.39788e-06, No Iterations 4
DICPCG:  Solving for p, Initial residual = 0.00354047, Final residual = 0.000173295, No Iterations 721
time step continuity errors : sum local = 7.16498e-11, global = 3.17005e-22, cumulative = -9.3966e-22
DICPCG:  Solving for p, Initial residual = 0.00195824, Final residual = 9.75255e-07, No Iterations 836
time step continuity errors : sum local = 4.03694e-13, global = 4.59681e-23, cumulative = -8.93692e-22
ExecutionTime = 37.55 s  ClockTime = 38 s

Time = 0.00021

Courant Number mean: 0.000636768 max: 0.0445801
smoothSolver:  Solving for Ux, Initial residual = 0.0116565, Final residual = 2.74621e-06, No Iterations 4
smoothSolver:  Solving for Uy, Initial residual = 0.0128485, Final residual = 3.22154e-06, No Iterations 4
DICPCG:  Solving for p, Initial residual = 0.00330729, Final residual = 0.000159114, No Iterations 720
time step continuity errors : sum local = 6.59609e-11, global = 7.16028e-23, cumulative = -8.22089e-22
DICPCG:  Solving for p, Initial residual = 0.00183138, Final residual = 9.51232e-07, No Iterations 835
time step continuity errors : sum local = 3.94755e-13, global = 9.44767e-23, cumulative = -7.27613e-22
ExecutionTime = 39.34 s  ClockTime = 40 s

Time = 0.00022

Courant Number mean: 0.000652425 max: 0.0447478
smoothSolver:  Solving for Ux, Initial residual = 0.011095, Final residual = 2.62215e-06, No Iterations 4
smoothSolver:  Solving for Uy, Initial residual = 0.0122111, Final residual = 3.06264e-06, No Iterations 4
DICPCG:  Solving for p, Initial residual = 0.00309793, Final residual = 0.000150821, No Iterations 720
time step continuity errors : sum local = 6.26726e-11, global = -1.29314e-22, cumulative = -8.56927e-22
DICPCG:  Solving for p, Initial residual = 0.00174684, Final residual = 9.27325e-07, No Iterations 832
time step continuity errors : sum local = 3.85739e-13, global = 2.38576e-24, cumulative = -8.54541e-22
ExecutionTime = 41.14 s  ClockTime = 41 s

Time = 0.00023

Courant Number mean: 0.000667674 max: 0.0449032
smoothSolver:  Solving for Ux, Initial residual = 0.0105842, Final residual = 2.50904e-06, No Iterations 4
smoothSolver:  Solving for Uy, Initial residual = 0.0116338, Final residual = 2.91871e-06, No Iterations 4
DICPCG:  Solving for p, Initial residual = 0.00294891, Final residual = 0.000146677, No Iterations 719
time step continuity errors : sum local = 6.10884e-11, global = 2.34134e-22, cumulative = -6.20408e-22
DICPCG:  Solving for p, Initial residual = 0.00165605, Final residual = 9.79829e-07, No Iterations 831
time step continuity errors : sum local = 4.08444e-13, global = 1.73009e-22, cumulative = -4.47399e-22
ExecutionTime = 42.93 s  ClockTime = 43 s

Time = 0.00024

Courant Number mean: 0.000682532 max: 0.0450476
smoothSolver:  Solving for Ux, Initial residual = 0.0101194, Final residual = 2.40557e-06, No Iterations 4
smoothSolver:  Solving for Uy, Initial residual = 0.0111086, Final residual = 2.78772e-06, No Iterations 4
DICPCG:  Solving for p, Initial residual = 0.00279132, Final residual = 0.000134636, No Iterations 719
time step continuity errors : sum local = 5.61885e-11, global = -4.68835e-22, cumulative = -9.16234e-22
DICPCG:  Solving for p, Initial residual = 0.00157284, Final residual = 9.72582e-07, No Iterations 830
time step continuity errors : sum local = 4.06251e-13, global = 4.80473e-22, cumulative = -4.35761e-22
ExecutionTime = 44.71 s  ClockTime = 45 s

Time = 0.00025

Courant Number mean: 0.00069702 max: 0.0451824
smoothSolver:  Solving for Ux, Initial residual = 0.00969458, Final residual = 2.31045e-06, No Iterations 4
smoothSolver:  Solving for Uy, Initial residual = 0.0106287, Final residual = 2.668e-06, No Iterations 4
DICPCG:  Solving for p, Initial residual = 0.00262267, Final residual = 0.000125516, No Iterations 719
time step continuity errors : sum local = 5.24819e-11, global = 2.84095e-23, cumulative = -4.07351e-22
DICPCG:  Solving for p, Initial residual = 0.00150432, Final residual = 9.99287e-07, No Iterations 828
time step continuity errors : sum local = 4.18214e-13, global = 5.92056e-23, cumulative = -3.48145e-22
ExecutionTime = 46.47 s  ClockTime = 47 s

Time = 0.00026

Courant Number mean: 0.000711157 max: 0.0453085
smoothSolver:  Solving for Ux, Initial residual = 0.00930421, Final residual = 2.22267e-06, No Iterations 4
smoothSolver:  Solving for Uy, Initial residual = 0.0101885, Final residual = 2.55815e-06, No Iterations 4
DICPCG:  Solving for p, Initial residual = 0.00248904, Final residual = 0.000123804, No Iterations 711
time step continuity errors : sum local = 5.18788e-11, global = 1.18744e-22, cumulative = -2.29401e-22
DICPCG:  Solving for p, Initial residual = 0.00142172, Final residual = 9.66725e-07, No Iterations 827
time step continuity errors : sum local = 4.05315e-13, global = -5.19372e-23, cumulative = -2.81339e-22
ExecutionTime = 48.21 s  ClockTime = 49 s

Time = 0.00027

Courant Number mean: 0.000724967 max: 0.0454268
smoothSolver:  Solving for Ux, Initial residual = 0.00894414, Final residual = 2.14137e-06, No Iterations 4
smoothSolver:  Solving for Uy, Initial residual = 0.00978331, Final residual = 2.457e-06, No Iterations 4
DICPCG:  Solving for p, Initial residual = 0.00237159, Final residual = 0.000117319, No Iterations 708
time step continuity errors : sum local = 4.92508e-11, global = 3.08811e-23, cumulative = -2.50458e-22
DICPCG:  Solving for p, Initial residual = 0.00135987, Final residual = 9.66176e-07, No Iterations 826
time step continuity errors : sum local = 4.05766e-13, global = 9.80014e-23, cumulative = -1.52456e-22
ExecutionTime = 49.93 s  ClockTime = 50 s

Time = 0.00028

Courant Number mean: 0.000738513 max: 0.0455382
smoothSolver:  Solving for Ux, Initial residual = 0.00861057, Final residual = 2.0659e-06, No Iterations 4
smoothSolver:  Solving for Uy, Initial residual = 0.00940903, Final residual = 2.36356e-06, No Iterations 4
DICPCG:  Solving for p, Initial residual = 0.00226418, Final residual = 0.000112637, No Iterations 710
time step continuity errors : sum local = 4.7355e-11, global = 5.04575e-23, cumulative = -1.01999e-22
DICPCG:  Solving for p, Initial residual = 0.00130613, Final residual = 9.59709e-07, No Iterations 825
time step continuity errors : sum local = 4.03665e-13, global = 6.69385e-23, cumulative = -3.50602e-23
ExecutionTime = 51.68 s  ClockTime = 52 s

Time = 0.00029

Courant Number mean: 0.000751789 max: 0.0456432
smoothSolver:  Solving for Ux, Initial residual = 0.00830148, Final residual = 1.9957e-06, No Iterations 4
smoothSolver:  Solving for Uy, Initial residual = 0.00906226, Final residual = 2.27696e-06, No Iterations 4
DICPCG:  Solving for p, Initial residual = 0.00215864, Final residual = 0.000106294, No Iterations 710
time step continuity errors : sum local = 4.47545e-11, global = 6.38826e-22, cumulative = 6.03766e-22
DICPCG:  Solving for p, Initial residual = 0.00127055, Final residual = 9.92301e-07, No Iterations 824
time step continuity errors : sum local = 4.17973e-13, global = 3.46608e-23, cumulative = 6.38426e-22
ExecutionTime = 53.43 s  ClockTime = 54 s

Time = 0.0003

Courant Number mean: 0.000764802 max: 0.0457425
smoothSolver:  Solving for Ux, Initial residual = 0.00801396, Final residual = 1.93014e-06, No Iterations 4
smoothSolver:  Solving for Uy, Initial residual = 0.00874009, Final residual = 2.19649e-06, No Iterations 4
DICPCG:  Solving for p, Initial residual = 0.00206516, Final residual = 0.000102718, No Iterations 709
time step continuity errors : sum local = 4.331e-11, global = -3.98604e-22, cumulative = 2.39822e-22
DICPCG:  Solving for p, Initial residual = 0.0012173, Final residual = 9.95498e-07, No Iterations 823
time step continuity errors : sum local = 4.19891e-13, global = -9.33134e-23, cumulative = 1.46509e-22
ExecutionTime = 55.16 s  ClockTime = 55 s

Time = 0.00031

Courant Number mean: 0.000777561 max: 0.0458366
smoothSolver:  Solving for Ux, Initial residual = 0.00774571, Final residual = 1.86882e-06, No Iterations 4
smoothSolver:  Solving for Uy, Initial residual = 0.00843999, Final residual = 2.12152e-06, No Iterations 4
DICPCG:  Solving for p, Initial residual = 0.00198199, Final residual = 9.90709e-05, No Iterations 708
time step continuity errors : sum local = 4.18281e-11, global = 1.6375e-22, cumulative = 3.10258e-22
DICPCG:  Solving for p, Initial residual = 0.00117538, Final residual = 9.68269e-07, No Iterations 822
time step continuity errors : sum local = 4.08944e-13, global = -5.25722e-22, cumulative = -2.15464e-22
ExecutionTime = 56.87 s  ClockTime = 57 s

Time = 0.00032

Courant Number mean: 0.000790074 max: 0.0459258
smoothSolver:  Solving for Ux, Initial residual = 0.00749476, Final residual = 1.81126e-06, No Iterations 4
smoothSolver:  Solving for Uy, Initial residual = 0.00815977, Final residual = 2.0515e-06, No Iterations 4
DICPCG:  Solving for p, Initial residual = 0.00190567, Final residual = 9.40714e-05, No Iterations 708
time step continuity errors : sum local = 3.97671e-11, global = 2.83801e-22, cumulative = 6.83374e-23
DICPCG:  Solving for p, Initial residual = 0.00113832, Final residual = 9.58872e-07, No Iterations 821
time step continuity errors : sum local = 4.05478e-13, global = 1.3789e-22, cumulative = 2.06228e-22
ExecutionTime = 58.6 s  ClockTime = 59 s

Time = 0.00033

Courant Number mean: 0.00080235 max: 0.0460107
smoothSolver:  Solving for Ux, Initial residual = 0.00725939, Final residual = 1.75714e-06, No Iterations 4
smoothSolver:  Solving for Uy, Initial residual = 0.00789751, Final residual = 1.98595e-06, No Iterations 4
DICPCG:  Solving for p, Initial residual = 0.00183355, Final residual = 9.09358e-05, No Iterations 707
time step continuity errors : sum local = 3.84879e-11, global = 1.32006e-22, cumulative = 3.38234e-22
DICPCG:  Solving for p, Initial residual = 0.00109552, Final residual = 9.26832e-07, No Iterations 820
time step continuity errors : sum local = 3.924e-13, global = 4.92598e-22, cumulative = 8.30833e-22
ExecutionTime = 60.37 s  ClockTime = 61 s

Time = 0.00034

Courant Number mean: 0.000814399 max: 0.0460915
smoothSolver:  Solving for Ux, Initial residual = 0.00703889, Final residual = 1.70631e-06, No Iterations 4
smoothSolver:  Solving for Uy, Initial residual = 0.00765154, Final residual = 1.92447e-06, No Iterations 4
DICPCG:  Solving for p, Initial residual = 0.00176691, Final residual = 8.81314e-05, No Iterations 706
time step continuity errors : sum local = 3.73443e-11, global = -9.12473e-22, cumulative = -8.164e-23
DICPCG:  Solving for p, Initial residual = 0.00105787, Final residual = 9.34421e-07, No Iterations 820
time step continuity errors : sum local = 3.96039e-13, global = -3.80842e-22, cumulative = -4.62482e-22
ExecutionTime = 62.13 s  ClockTime = 62 s

Time = 0.00035

Courant Number mean: 0.000826266 max: 0.0461685
smoothSolver:  Solving for Ux, Initial residual = 0.00683166, Final residual = 1.65843e-06, No Iterations 4
smoothSolver:  Solving for Uy, Initial residual = 0.00742038, Final residual = 1.86668e-06, No Iterations 4
DICPCG:  Solving for p, Initial residual = 0.00170428, Final residual = 8.46691e-05, No Iterations 704
time step continuity errors : sum local = 3.59182e-11, global = 9.15934e-23, cumulative = -3.70889e-22
DICPCG:  Solving for p, Initial residual = 0.00102172, Final residual = 9.79766e-07, No Iterations 818
time step continuity errors : sum local = 4.1571e-13, global = -2.0455e-22, cumulative = -5.75439e-22
ExecutionTime = 63.9 s  ClockTime = 64 s

Time = 0.00036

Courant Number mean: 0.00083795 max: 0.0462421
smoothSolver:  Solving for Ux, Initial residual = 0.00663614, Final residual = 1.61316e-06, No Iterations 4
smoothSolver:  Solving for Uy, Initial residual = 0.00720275, Final residual = 1.81226e-06, No Iterations 4
DICPCG:  Solving for p, Initial residual = 0.00164544, Final residual = 8.10025e-05, No Iterations 703
time step continuity errors : sum local = 3.43995e-11, global = -1.50855e-22, cumulative = -7.26294e-22
DICPCG:  Solving for p, Initial residual = 0.000995554, Final residual = 9.83151e-07, No Iterations 817
time step continuity errors : sum local = 4.17577e-13, global = 1.32529e-22, cumulative = -5.93765e-22
ExecutionTime = 65.66 s  ClockTime = 66 s

Time = 0.00037

Courant Number mean: 0.000849451 max: 0.0463125
smoothSolver:  Solving for Ux, Initial residual = 0.00645133, Final residual = 1.5703e-06, No Iterations 4
smoothSolver:  Solving for Uy, Initial residual = 0.00699747, Final residual = 1.76092e-06, No Iterations 4
DICPCG:  Solving for p, Initial residual = 0.00159034, Final residual = 7.72875e-05, No Iterations 703
time step continuity errors : sum local = 3.28542e-11, global = 3.80186e-23, cumulative = -5.55747e-22
DICPCG:  Solving for p, Initial residual = 0.000969134, Final residual = 9.3782e-07, No Iterations 817
time step continuity errors : sum local = 3.9871e-13, global = -5.63194e-23, cumulative = -6.12066e-22
ExecutionTime = 67.43 s  ClockTime = 68 s

Time = 0.00038

Courant Number mean: 0.000860772 max: 0.0463799
smoothSolver:  Solving for Ux, Initial residual = 0.00627636, Final residual = 1.52962e-06, No Iterations 4
smoothSolver:  Solving for Uy, Initial residual = 0.00680354, Final residual = 1.71241e-06, No Iterations 4
DICPCG:  Solving for p, Initial residual = 0.00153745, Final residual = 7.6245e-05, No Iterations 702
time step continuity errors : sum local = 3.2442e-11, global = 1.74257e-22, cumulative = -4.37809e-22
DICPCG:  Solving for p, Initial residual = 0.000939781, Final residual = 9.66093e-07, No Iterations 816
time step continuity errors : sum local = 4.1111e-13, global = 1.70786e-22, cumulative = -2.67023e-22
ExecutionTime = 69.2 s  ClockTime = 70 s

Time = 0.00039

Courant Number mean: 0.000871917 max: 0.0464446
smoothSolver:  Solving for Ux, Initial residual = 0.00611051, Final residual = 1.49098e-06, No Iterations 4
smoothSolver:  Solving for Uy, Initial residual = 0.00662003, Final residual = 1.66651e-06, No Iterations 4
DICPCG:  Solving for p, Initial residual = 0.00148996, Final residual = 7.38787e-05, No Iterations 702
time step continuity errors : sum local = 3.14631e-11, global = -9.84965e-23, cumulative = -3.65519e-22
DICPCG:  Solving for p, Initial residual = 0.00091738, Final residual = 9.98378e-07, No Iterations 815
time step continuity errors : sum local = 4.25231e-13, global = 3.49777e-22, cumulative = -1.57423e-23
ExecutionTime = 70.95 s  ClockTime = 71 s

Time = 0.0004

Courant Number mean: 0.000882891 max: 0.0465066
smoothSolver:  Solving for Ux, Initial residual = 0.00595357, Final residual = 1.45427e-06, No Iterations 4
smoothSolver:  Solving for Uy, Initial residual = 0.00644613, Final residual = 1.623e-06, No Iterations 4
DICPCG:  Solving for p, Initial residual = 0.00144526, Final residual = 7.08688e-05, No Iterations 702
time step continuity errors : sum local = 3.02073e-11, global = 5.82275e-23, cumulative = 4.24852e-23
DICPCG:  Solving for p, Initial residual = 0.000892244, Final residual = 9.96548e-07, No Iterations 814
time step continuity errors : sum local = 4.24833e-13, global = 3.82511e-22, cumulative = 4.24996e-22
ExecutionTime = 72.72 s  ClockTime = 73 s

Time = 0.00041

Courant Number mean: 0.000893699 max: 0.0465663
smoothSolver:  Solving for Ux, Initial residual = 0.00580465, Final residual = 1.41944e-06, No Iterations 4
smoothSolver:  Solving for Uy, Initial residual = 0.0062811, Final residual = 1.5817e-06, No Iterations 4
DICPCG:  Solving for p, Initial residual = 0.00140205, Final residual = 6.80248e-05, No Iterations 702
time step continuity errors : sum local = 2.9019e-11, global = -2.85483e-23, cumulative = 3.96448e-22
DICPCG:  Solving for p, Initial residual = 0.000868084, Final residual = 9.855e-07, No Iterations 813
time step continuity errors : sum local = 4.20489e-13, global = 1.89847e-22, cumulative = 5.86295e-22
ExecutionTime = 74.47 s  ClockTime = 75 s

Time = 0.00042

Courant Number mean: 0.000904346 max: 0.0466236
smoothSolver:  Solving for Ux, Initial residual = 0.00566309, Final residual = 1.38627e-06, No Iterations 4
smoothSolver:  Solving for Uy, Initial residual = 0.00612428, Final residual = 1.54246e-06, No Iterations 4
DICPCG:  Solving for p, Initial residual = 0.0013616, Final residual = 6.50468e-05, No Iterations 702
time step continuity errors : sum local = 2.77709e-11, global = 2.57974e-23, cumulative = 6.12092e-22
DICPCG:  Solving for p, Initial residual = 0.000845559, Final residual = 9.75826e-07, No Iterations 812
time step continuity errors : sum local = 4.16705e-13, global = -4.16332e-22, cumulative = 1.95761e-22
ExecutionTime = 76.21 s  ClockTime = 77 s

Time = 0.00043

Courant Number mean: 0.000914857 max: 0.0466789
smoothSolver:  Solving for Ux, Initial residual = 0.00552822, Final residual = 1.35465e-06, No Iterations 4
smoothSolver:  Solving for Uy, Initial residual = 0.00597507, Final residual = 1.50511e-06, No Iterations 4
DICPCG:  Solving for p, Initial residual = 0.00132338, Final residual = 6.51235e-05, No Iterations 701
time step continuity errors : sum local = 2.78253e-11, global = 1.8078e-22, cumulative = 3.76541e-22
DICPCG:  Solving for p, Initial residual = 0.000823416, Final residual = 9.94277e-07, No Iterations 811
time step continuity errors : sum local = 4.24908e-13, global = -2.84328e-22, cumulative = 9.22123e-23
ExecutionTime = 77.96 s  ClockTime = 78 s

Time = 0.00044

Courant Number mean: 0.000925243 max: 0.0467321
smoothSolver:  Solving for Ux, Initial residual = 0.00539945, Final residual = 9.92551e-06, No Iterations 3
smoothSolver:  Solving for Uy, Initial residual = 0.00583293, Final residual = 1.46953e-06, No Iterations 4
DICPCG:  Solving for p, Initial residual = 0.00204879, Final residual = 0.000100911, No Iterations 347
time step continuity errors : sum local = 4.55751e-11, global = 3.40555e-22, cumulative = 4.32767e-22
DICPCG:  Solving for p, Initial residual = 0.00156102, Final residual = 9.79367e-07, No Iterations 814
time step continuity errors : sum local = 4.19139e-13, global = 3.27806e-22, cumulative = 7.60573e-22
ExecutionTime = 79.31 s  ClockTime = 80 s

Time = 0.00045

Courant Number mean: 0.000935495 max: 0.0467835
smoothSolver:  Solving for Ux, Initial residual = 0.00527602, Final residual = 9.70625e-06, No Iterations 3
smoothSolver:  Solving for Uy, Initial residual = 0.00569823, Final residual = 1.4358e-06, No Iterations 4
DICPCG:  Solving for p, Initial residual = 0.0019789, Final residual = 9.63393e-05, No Iterations 346
time step continuity errors : sum local = 4.21268e-11, global = -3.16171e-22, cumulative = 4.44403e-22
DICPCG:  Solving for p, Initial residual = 0.00152864, Final residual = 9.84361e-07, No Iterations 813
time step continuity errors : sum local = 4.21555e-13, global = 2.48317e-22, cumulative = 6.9272e-22
ExecutionTime = 80.66 s  ClockTime = 81 s

Time = 0.00046

Courant Number mean: 0.000945616 max: 0.0468331
smoothSolver:  Solving for Ux, Initial residual = 0.00515879, Final residual = 9.49728e-06, No Iterations 3
smoothSolver:  Solving for Uy, Initial residual = 0.00556832, Final residual = 1.40327e-06, No Iterations 4
DICPCG:  Solving for p, Initial residual = 0.00193259, Final residual = 9.45688e-05, No Iterations 346
time step continuity errors : sum local = 4.23384e-11, global = 5.17006e-22, cumulative = 1.20973e-21
DICPCG:  Solving for p, Initial residual = 0.00150516, Final residual = 9.8198e-07, No Iterations 812
time step continuity errors : sum local = 4.20856e-13, global = -1.97865e-22, cumulative = 1.01186e-21
ExecutionTime = 82.01 s  ClockTime = 82 s

Time = 0.00047

Courant Number mean: 0.000955608 max: 0.046881
smoothSolver:  Solving for Ux, Initial residual = 0.00504642, Final residual = 9.29615e-06, No Iterations 3
smoothSolver:  Solving for Uy, Initial residual = 0.00544498, Final residual = 1.37239e-06, No Iterations 4
DICPCG:  Solving for p, Initial residual = 0.00189466, Final residual = 9.26907e-05, No Iterations 345
time step continuity errors : sum local = 4.08374e-11, global = -1.41131e-22, cumulative = 8.7073e-22
DICPCG:  Solving for p, Initial residual = 0.00147482, Final residual = 9.86761e-07, No Iterations 811
time step continuity errors : sum local = 4.23181e-13, global = -7.17399e-23, cumulative = 7.9899e-22
ExecutionTime = 83.36 s  ClockTime = 84 s

Time = 0.00048

Courant Number mean: 0.000965474 max: 0.0469274
smoothSolver:  Solving for Ux, Initial residual = 0.00493912, Final residual = 9.10397e-06, No Iterations 3
smoothSolver:  Solving for Uy, Initial residual = 0.00532642, Final residual = 1.3427e-06, No Iterations 4
DICPCG:  Solving for p, Initial residual = 0.00185484, Final residual = 9.03772e-05, No Iterations 345
time step continuity errors : sum local = 4.02806e-11, global = 3.90437e-23, cumulative = 8.38034e-22
DICPCG:  Solving for p, Initial residual = 0.00145363, Final residual = 9.52591e-07, No Iterations 811
time step continuity errors : sum local = 4.08788e-13, global = -1.31541e-22, cumulative = 7.06492e-22
ExecutionTime = 84.7 s  ClockTime = 85 s

Time = 0.00049

Courant Number mean: 0.000975218 max: 0.0469722
smoothSolver:  Solving for Ux, Initial residual = 0.00483613, Final residual = 8.91966e-06, No Iterations 3
smoothSolver:  Solving for Uy, Initial residual = 0.00521326, Final residual = 9.82596e-06, No Iterations 3
DICPCG:  Solving for p, Initial residual = 0.00201685, Final residual = 0.000100047, No Iterations 341
time step continuity errors : sum local = 4.42761e-11, global = -6.54411e-23, cumulative = 6.41051e-22
DICPCG:  Solving for p, Initial residual = 0.00161269, Final residual = 9.91898e-07, No Iterations 807
time step continuity errors : sum local = 4.26044e-13, global = 5.82818e-22, cumulative = 1.22387e-21
ExecutionTime = 86.05 s  ClockTime = 86 s

Time = 0.0005

Courant Number mean: 0.00098484 max: 0.0470156
smoothSolver:  Solving for Ux, Initial residual = 0.0047374, Final residual = 8.74303e-06, No Iterations 3
smoothSolver:  Solving for Uy, Initial residual = 0.00510461, Final residual = 9.62215e-06, No Iterations 3
DICPCG:  Solving for p, Initial residual = 0.00197125, Final residual = 9.70593e-05, No Iterations 341
time step continuity errors : sum local = 4.30672e-11, global = -4.19923e-22, cumulative = 8.03947e-22
DICPCG:  Solving for p, Initial residual = 0.00160022, Final residual = 9.74486e-07, No Iterations 806
time step continuity errors : sum local = 4.18839e-13, global = -2.91376e-22, cumulative = 5.12571e-22
ExecutionTime = 87.39 s  ClockTime = 88 s

Time = 0.00051

Courant Number mean: 0.000994344 max: 0.0470577
smoothSolver:  Solving for Ux, Initial residual = 0.00464255, Final residual = 8.5733e-06, No Iterations 3
smoothSolver:  Solving for Uy, Initial residual = 0.00500045, Final residual = 9.42661e-06, No Iterations 3
DICPCG:  Solving for p, Initial residual = 0.00193572, Final residual = 9.39211e-05, No Iterations 341
time step continuity errors : sum local = 4.16394e-11, global = 6.26609e-23, cumulative = 5.75231e-22
DICPCG:  Solving for p, Initial residual = 0.00157451, Final residual = 9.96646e-07, No Iterations 804
time step continuity errors : sum local = 4.28645e-13, global = 8.8876e-23, cumulative = 6.64107e-22
ExecutionTime = 88.74 s  ClockTime = 89 s

Time = 0.00052

Courant Number mean: 0.00100374 max: 0.0470984
smoothSolver:  Solving for Ux, Initial residual = 0.00455137, Final residual = 8.41009e-06, No Iterations 3
smoothSolver:  Solving for Uy, Initial residual = 0.00490039, Final residual = 9.23876e-06, No Iterations 3
DICPCG:  Solving for p, Initial residual = 0.00190167, Final residual = 9.42024e-05, No Iterations 340
time step continuity errors : sum local = 4.1784e-11, global = 6.1883e-23, cumulative = 7.2599e-22
DICPCG:  Solving for p, Initial residual = 0.0015482, Final residual = 9.89289e-07, No Iterations 803
time step continuity errors : sum local = 4.25728e-13, global = 3.07501e-24, cumulative = 7.29065e-22
ExecutionTime = 90.07 s  ClockTime = 90 s

Time = 0.00053

Courant Number mean: 0.00101305 max: 0.047138
smoothSolver:  Solving for Ux, Initial residual = 0.00446381, Final residual = 8.2528e-06, No Iterations 3
smoothSolver:  Solving for Uy, Initial residual = 0.00480427, Final residual = 9.05828e-06, No Iterations 3
DICPCG:  Solving for p, Initial residual = 0.00187098, Final residual = 9.13304e-05, No Iterations 340
time step continuity errors : sum local = 4.05046e-11, global = 5.78598e-24, cumulative = 7.34851e-22
DICPCG:  Solving for p, Initial residual = 0.00152978, Final residual = 9.86078e-07, No Iterations 801
time step continuity errors : sum local = 4.24617e-13, global = -2.72741e-22, cumulative = 4.62111e-22
ExecutionTime = 91.4 s  ClockTime = 92 s

Time = 0.00054

Courant Number mean: 0.00102226 max: 0.0471764
smoothSolver:  Solving for Ux, Initial residual = 0.00437956, Final residual = 8.10103e-06, No Iterations 3
smoothSolver:  Solving for Uy, Initial residual = 0.00471181, Final residual = 8.88466e-06, No Iterations 3
DICPCG:  Solving for p, Initial residual = 0.00183921, Final residual = 9.13821e-05, No Iterations 339
time step continuity errors : sum local = 4.05298e-11, global = 3.4779e-23, cumulative = 4.9689e-22
DICPCG:  Solving for p, Initial residual = 0.00150476, Final residual = 9.93915e-07, No Iterations 798
time step continuity errors : sum local = 4.2823e-13, global = -1.45797e-22, cumulative = 3.51093e-22
ExecutionTime = 92.72 s  ClockTime = 93 s

Time = 0.00055

Courant Number mean: 0.00103138 max: 0.0472138
smoothSolver:  Solving for Ux, Initial residual = 0.00429841, Final residual = 7.95458e-06, No Iterations 3
smoothSolver:  Solving for Uy, Initial residual = 0.00462284, Final residual = 8.71758e-06, No Iterations 3
DICPCG:  Solving for p, Initial residual = 0.00181035, Final residual = 8.86728e-05, No Iterations 339
time step continuity errors : sum local = 3.93361e-11, global = -3.40139e-22, cumulative = 1.09541e-23
DICPCG:  Solving for p, Initial residual = 0.00148793, Final residual = 9.66103e-07, No Iterations 798
time step continuity errors : sum local = 4.16452e-13, global = -4.61876e-22, cumulative = -4.50922e-22
ExecutionTime = 94.06 s  ClockTime = 94 s

Time = 0.00056

Courant Number mean: 0.00104041 max: 0.04725
smoothSolver:  Solving for Ux, Initial residual = 0.0042202, Final residual = 7.81359e-06, No Iterations 3
smoothSolver:  Solving for Uy, Initial residual = 0.00453714, Final residual = 8.55663e-06, No Iterations 3
DICPCG:  Solving for p, Initial residual = 0.00178116, Final residual = 8.61023e-05, No Iterations 339
time step continuity errors : sum local = 3.82244e-11, global = -1.7242e-22, cumulative = -6.23342e-22
DICPCG:  Solving for p, Initial residual = 0.0014665, Final residual = 9.7772e-07, No Iterations 797
time step continuity errors : sum local = 4.21641e-13, global = -6.89469e-24, cumulative = -6.30237e-22
ExecutionTime = 95.38 s  ClockTime = 96 s

Time = 0.00057

Courant Number mean: 0.00104934 max: 0.0472853
smoothSolver:  Solving for Ux, Initial residual = 0.00414473, Final residual = 7.67767e-06, No Iterations 3
smoothSolver:  Solving for Uy, Initial residual = 0.00445455, Final residual = 8.40152e-06, No Iterations 3
DICPCG:  Solving for p, Initial residual = 0.00175318, Final residual = 8.36286e-05, No Iterations 339
time step continuity errors : sum local = 3.71391e-11, global = -8.72538e-24, cumulative = -6.38962e-22
DICPCG:  Solving for p, Initial residual = 0.00144594, Final residual = 9.88046e-07, No Iterations 796
time step continuity errors : sum local = 4.26284e-13, global = -2.92596e-22, cumulative = -9.31558e-22
ExecutionTime = 96.7 s  ClockTime = 97 s

Time = 0.00058

Courant Number mean: 0.00105817 max: 0.0473196
smoothSolver:  Solving for Ux, Initial residual = 0.00407188, Final residual = 7.54646e-06, No Iterations 3
smoothSolver:  Solving for Uy, Initial residual = 0.0043749, Final residual = 8.2519e-06, No Iterations 3
DICPCG:  Solving for p, Initial residual = 0.00172607, Final residual = 8.12724e-05, No Iterations 339
time step continuity errors : sum local = 3.61147e-11, global = -2.42197e-22, cumulative = -1.17375e-21
DICPCG:  Solving for p, Initial residual = 0.00142614, Final residual = 9.61823e-07, No Iterations 796
time step continuity errors : sum local = 4.15156e-13, global = 3.98738e-23, cumulative = -1.13388e-21
ExecutionTime = 98.03 s  ClockTime = 98 s

Time = 0.00059

Courant Number mean: 0.00106691 max: 0.047353
smoothSolver:  Solving for Ux, Initial residual = 0.00400149, Final residual = 7.41968e-06, No Iterations 3
smoothSolver:  Solving for Uy, Initial residual = 0.00429804, Final residual = 8.10752e-06, No Iterations 3
DICPCG:  Solving for p, Initial residual = 0.00170413, Final residual = 8.40874e-05, No Iterations 338
time step continuity errors : sum local = 3.73116e-11, global = -1.34824e-22, cumulative = -1.2687e-21
DICPCG:  Solving for p, Initial residual = 0.00140659, Final residual = 9.86599e-07, No Iterations 795
time step continuity errors : sum local = 4.26019e-13, global = 2.49258e-23, cumulative = -1.24378e-21
ExecutionTime = 99.34 s  ClockTime = 100 s

Time = 0.0006

Courant Number mean: 0.00107557 max: 0.0473856
smoothSolver:  Solving for Ux, Initial residual = 0.00393353, Final residual = 7.29709e-06, No Iterations 3
smoothSolver:  Solving for Uy, Initial residual = 0.00422381, Final residual = 7.96809e-06, No Iterations 3
DICPCG:  Solving for p, Initial residual = 0.00172573, Final residual = 8.47963e-05, No Iterations 337
time step continuity errors : sum local = 3.76062e-11, global = 2.63924e-22, cumulative = -9.79855e-22
DICPCG:  Solving for p, Initial residual = 0.00139626, Final residual = 9.63381e-07, No Iterations 795
time step continuity errors : sum local = 4.16171e-13, global = 4.65368e-22, cumulative = -5.14487e-22
ExecutionTime = 100.66 s  ClockTime = 101 s

Time = 0.00061

Courant Number mean: 0.00108413 max: 0.0474173
smoothSolver:  Solving for Ux, Initial residual = 0.00386795, Final residual = 7.17847e-06, No Iterations 3
smoothSolver:  Solving for Uy, Initial residual = 0.0041521, Final residual = 7.83336e-06, No Iterations 3
DICPCG:  Solving for p, Initial residual = 0.00171114, Final residual = 8.1978e-05, No Iterations 337
time step continuity errors : sum local = 3.63781e-11, global = -1.80022e-22, cumulative = -6.94509e-22
DICPCG:  Solving for p, Initial residual = 0.00138409, Final residual = 9.84332e-07, No Iterations 794
time step continuity errors : sum local = 4.25383e-13, global = 1.04223e-22, cumulative = -5.90286e-22
ExecutionTime = 101.98 s  ClockTime = 102 s

Time = 0.00062

Courant Number mean: 0.00109261 max: 0.0474482
smoothSolver:  Solving for Ux, Initial residual = 0.00380458, Final residual = 7.06359e-06, No Iterations 3
smoothSolver:  Solving for Uy, Initial residual = 0.00408276, Final residual = 7.7031e-06, No Iterations 3
DICPCG:  Solving for p, Initial residual = 0.00163099, Final residual = 8.04836e-05, No Iterations 337
time step continuity errors : sum local = 3.57237e-11, global = -4.08854e-23, cumulative = -6.31171e-22
DICPCG:  Solving for p, Initial residual = 0.00136046, Final residual = 9.96012e-07, No Iterations 793
time step continuity errors : sum local = 4.30596e-13, global = -5.83376e-23, cumulative = -6.89509e-22
ExecutionTime = 103.3 s  ClockTime = 104 s

Time = 0.00063

Courant Number mean: 0.00110102 max: 0.0474783
smoothSolver:  Solving for Ux, Initial residual = 0.00374323, Final residual = 6.95221e-06, No Iterations 3
smoothSolver:  Solving for Uy, Initial residual = 0.0040157, Final residual = 7.57708e-06, No Iterations 3
DICPCG:  Solving for p, Initial residual = 0.00160716, Final residual = 7.84447e-05, No Iterations 337
time step continuity errors : sum local = 3.48324e-11, global = -4.09195e-22, cumulative = -1.0987e-21
DICPCG:  Solving for p, Initial residual = 0.00134367, Final residual = 9.71574e-07, No Iterations 793
time step continuity errors : sum local = 4.20196e-13, global = 7.72166e-23, cumulative = -1.02149e-21
ExecutionTime = 104.62 s  ClockTime = 105 s

Time = 0.00064

Courant Number mean: 0.00110937 max: 0.0475077
smoothSolver:  Solving for Ux, Initial residual = 0.00368377, Final residual = 6.8444e-06, No Iterations 3
smoothSolver:  Solving for Uy, Initial residual = 0.00395079, Final residual = 7.45512e-06, No Iterations 3
DICPCG:  Solving for p, Initial residual = 0.00158547, Final residual = 7.64479e-05, No Iterations 337
time step continuity errors : sum local = 3.39604e-11, global = 1.07216e-22, cumulative = -9.14271e-22
DICPCG:  Solving for p, Initial residual = 0.00132727, Final residual = 9.7768e-07, No Iterations 792
time step continuity errors : sum local = 4.22993e-13, global = -3.94261e-22, cumulative = -1.30853e-21
ExecutionTime = 105.93 s  ClockTime = 106 s

Time = 0.00065

Courant Number mean: 0.00111764 max: 0.0475364
smoothSolver:  Solving for Ux, Initial residual = 0.0036261, Final residual = 6.73996e-06, No Iterations 3
smoothSolver:  Solving for Uy, Initial residual = 0.00388793, Final residual = 7.337e-06, No Iterations 3
DICPCG:  Solving for p, Initial residual = 0.00156447, Final residual = 7.45235e-05, No Iterations 337
time step continuity errors : sum local = 3.31189e-11, global = 3.79501e-22, cumulative = -9.29031e-22
DICPCG:  Solving for p, Initial residual = 0.00131137, Final residual = 9.54068e-07, No Iterations 792
time step continuity errors : sum local = 4.12932e-13, global = -2.3163e-22, cumulative = -1.16066e-21
ExecutionTime = 107.25 s  ClockTime = 108 s

Time = 0.00066

Courant Number mean: 0.00112584 max: 0.0475644
smoothSolver:  Solving for Ux, Initial residual = 0.00357016, Final residual = 6.63868e-06, No Iterations 3
smoothSolver:  Solving for Uy, Initial residual = 0.00382704, Final residual = 7.22257e-06, No Iterations 3
DICPCG:  Solving for p, Initial residual = 0.00154403, Final residual = 7.70196e-05, No Iterations 336
time step continuity errors : sum local = 3.41875e-11, global = 1.04944e-22, cumulative = -1.05572e-21
DICPCG:  Solving for p, Initial residual = 0.00129615, Final residual = 9.80348e-07, No Iterations 791
time step continuity errors : sum local = 4.24447e-13, global = -3.74586e-22, cumulative = -1.4303e-21
ExecutionTime = 108.56 s  ClockTime = 109 s

Time = 0.00067

Courant Number mean: 0.00113396 max: 0.0475918
smoothSolver:  Solving for Ux, Initial residual = 0.00351587, Final residual = 6.5404e-06, No Iterations 3
smoothSolver:  Solving for Uy, Initial residual = 0.00376801, Final residual = 7.11163e-06, No Iterations 3
DICPCG:  Solving for p, Initial residual = 0.00152616, Final residual = 7.5175e-05, No Iterations 336
time step continuity errors : sum local = 3.33809e-11, global = 2.45573e-22, cumulative = -1.18473e-21
DICPCG:  Solving for p, Initial residual = 0.00128563, Final residual = 9.87865e-07, No Iterations 790
time step continuity errors : sum local = 4.27843e-13, global = -2.92866e-22, cumulative = -1.47759e-21
ExecutionTime = 109.87 s  ClockTime = 110 s

Time = 0.00068

Courant Number mean: 0.00114202 max: 0.0476185
smoothSolver:  Solving for Ux, Initial residual = 0.00346323, Final residual = 6.44494e-06, No Iterations 3
smoothSolver:  Solving for Uy, Initial residual = 0.00371077, Final residual = 7.00405e-06, No Iterations 3
DICPCG:  Solving for p, Initial residual = 0.00150669, Final residual = 7.3413e-05, No Iterations 336
time step continuity errors : sum local = 3.2611e-11, global = 5.80837e-22, cumulative = -8.96758e-22
DICPCG:  Solving for p, Initial residual = 0.00127087, Final residual = 9.65807e-07, No Iterations 790
time step continuity errors : sum local = 4.18436e-13, global = 1.66203e-22, cumulative = -7.30555e-22
ExecutionTime = 111.17 s  ClockTime = 112 s

Time = 0.00069

Courant Number mean: 0.00115 max: 0.0476446
smoothSolver:  Solving for Ux, Initial residual = 0.00341221, Final residual = 6.3522e-06, No Iterations 3
smoothSolver:  Solving for Uy, Initial residual = 0.00365523, Final residual = 6.89966e-06, No Iterations 3
DICPCG:  Solving for p, Initial residual = 0.0014879, Final residual = 7.17169e-05, No Iterations 336
time step continuity errors : sum local = 3.18687e-11, global = -4.19384e-22, cumulative = -1.14994e-21
DICPCG:  Solving for p, Initial residual = 0.00125661, Final residual = 9.8445e-07, No Iterations 789
time step continuity errors : sum local = 4.26648e-13, global = -2.31585e-22, cumulative = -1.38152e-21
ExecutionTime = 112.48 s  ClockTime = 113 s

Time = 0.0007

Courant Number mean: 0.00115792 max: 0.0476702
smoothSolver:  Solving for Ux, Initial residual = 0.0033627, Final residual = 6.26206e-06, No Iterations 3
smoothSolver:  Solving for Uy, Initial residual = 0.00360131, Final residual = 6.79833e-06, No Iterations 3
DICPCG:  Solving for p, Initial residual = 0.00147002, Final residual = 7.00782e-05, No Iterations 336
time step continuity errors : sum local = 3.11518e-11, global = 3.55362e-22, cumulative = -1.02616e-21
DICPCG:  Solving for p, Initial residual = 0.0012428, Final residual = 9.63716e-07, No Iterations 789
time step continuity errors : sum local = 4.17802e-13, global = 7.22559e-22, cumulative = -3.03603e-22
ExecutionTime = 113.78 s  ClockTime = 114 s

Time = 0.00071

Courant Number mean: 0.00116576 max: 0.0476952
smoothSolver:  Solving for Ux, Initial residual = 0.00331461, Final residual = 6.17437e-06, No Iterations 3
smoothSolver:  Solving for Uy, Initial residual = 0.00354896, Final residual = 6.69992e-06, No Iterations 3
DICPCG:  Solving for p, Initial residual = 0.00145225, Final residual = 6.85236e-05, No Iterations 336
time step continuity errors : sum local = 3.04709e-11, global = -4.96026e-24, cumulative = -3.08563e-22
DICPCG:  Solving for p, Initial residual = 0.00122925, Final residual = 9.93481e-07, No Iterations 788
time step continuity errors : sum local = 4.30838e-13, global = -1.00124e-22, cumulative = -4.08688e-22
ExecutionTime = 115.09 s  ClockTime = 115 s

Time = 0.00072

Courant Number mean: 0.00117354 max: 0.0477196
smoothSolver:  Solving for Ux, Initial residual = 0.00326787, Final residual = 6.08911e-06, No Iterations 3
smoothSolver:  Solving for Uy, Initial residual = 0.0034981, Final residual = 6.60432e-06, No Iterations 3
DICPCG:  Solving for p, Initial residual = 0.001435, Final residual = 6.70151e-05, No Iterations 336
time step continuity errors : sum local = 2.98102e-11, global = -4.10472e-22, cumulative = -8.1916e-22
DICPCG:  Solving for p, Initial residual = 0.00121621, Final residual = 9.72913e-07, No Iterations 788
time step continuity errors : sum local = 4.22053e-13, global = 1.13595e-22, cumulative = -7.05565e-22
ExecutionTime = 116.44 s  ClockTime = 117 s

Time = 0.00073

Courant Number mean: 0.00118125 max: 0.0477436
smoothSolver:  Solving for Ux, Initial residual = 0.00322243, Final residual = 6.00636e-06, No Iterations 3
smoothSolver:  Solving for Uy, Initial residual = 0.00344867, Final residual = 6.51139e-06, No Iterations 3
DICPCG:  Solving for p, Initial residual = 0.00141836, Final residual = 7.06171e-05, No Iterations 335
time step continuity errors : sum local = 3.13623e-11, global = 7.49316e-22, cumulative = 4.37505e-23
DICPCG:  Solving for p, Initial residual = 0.00120525, Final residual = 9.9083e-07, No Iterations 787
time step continuity errors : sum local = 4.29953e-13, global = -3.4409e-23, cumulative = 9.34158e-24
ExecutionTime = 117.79 s  ClockTime = 118 s

Time = 0.00074

Courant Number mean: 0.0011889 max: 0.047767
smoothSolver:  Solving for Ux, Initial residual = 0.00317822, Final residual = 5.92592e-06, No Iterations 3
smoothSolver:  Solving for Uy, Initial residual = 0.00340061, Final residual = 6.42104e-06, No Iterations 3
DICPCG:  Solving for p, Initial residual = 0.00140507, Final residual = 6.91515e-05, No Iterations 335
time step continuity errors : sum local = 3.07204e-11, global = -6.27349e-23, cumulative = -5.33933e-23
DICPCG:  Solving for p, Initial residual = 0.00119715, Final residual = 9.70851e-07, No Iterations 787
time step continuity errors : sum local = 4.21414e-13, global = 5.71492e-23, cumulative = 3.75596e-24
ExecutionTime = 119.13 s  ClockTime = 119 s

Time = 0.00075

Courant Number mean: 0.0011965 max: 0.04779
smoothSolver:  Solving for Ux, Initial residual = 0.00313515, Final residual = 5.8476e-06, No Iterations 3
smoothSolver:  Solving for Uy, Initial residual = 0.00335386, Final residual = 6.33316e-06, No Iterations 3
DICPCG:  Solving for p, Initial residual = 0.00138896, Final residual = 6.76249e-05, No Iterations 335
time step continuity errors : sum local = 3.00526e-11, global = 1.03524e-21, cumulative = 1.03899e-21
DICPCG:  Solving for p, Initial residual = 0.0011849, Final residual = 9.84955e-07, No Iterations 786
time step continuity errors : sum local = 4.27672e-13, global = -2.3951e-22, cumulative = 7.99484e-22
ExecutionTime = 120.44 s  ClockTime = 121 s

Time = 0.00076

Courant Number mean: 0.00120405 max: 0.0478124
smoothSolver:  Solving for Ux, Initial residual = 0.00309317, Final residual = 5.77125e-06, No Iterations 3
smoothSolver:  Solving for Uy, Initial residual = 0.00330838, Final residual = 6.24763e-06, No Iterations 3
DICPCG:  Solving for p, Initial residual = 0.00137316, Final residual = 6.62574e-05, No Iterations 335
time step continuity errors : sum local = 2.94533e-11, global = -2.10875e-22, cumulative = 5.88609e-22
DICPCG:  Solving for p, Initial residual = 0.00117316, Final residual = 9.84212e-07, No Iterations 785
time step continuity errors : sum local = 4.27489e-13, global = -2.84668e-22, cumulative = 3.03941e-22
ExecutionTime = 121.79 s  ClockTime = 122 s

Time = 0.00077

Courant Number mean: 0.00121154 max: 0.0478345
smoothSolver:  Solving for Ux, Initial residual = 0.00305234, Final residual = 5.69682e-06, No Iterations 3
smoothSolver:  Solving for Uy, Initial residual = 0.0032641, Final residual = 6.16439e-06, No Iterations 3
DICPCG:  Solving for p, Initial residual = 0.00135831, Final residual = 6.49139e-05, No Iterations 335
time step continuity errors : sum local = 2.88646e-11, global = -4.42462e-22, cumulative = -1.38521e-22
DICPCG:  Solving for p, Initial residual = 0.00116169, Final residual = 9.65238e-07, No Iterations 785
time step continuity errors : sum local = 4.19368e-13, global = 5.14574e-22, cumulative = 3.76054e-22
ExecutionTime = 123.1 s  ClockTime = 123 s

Time = 0.00078

Courant Number mean: 0.00121898 max: 0.047856
smoothSolver:  Solving for Ux, Initial residual = 0.00301261, Final residual = 5.62424e-06, No Iterations 3
smoothSolver:  Solving for Uy, Initial residual = 0.00322099, Final residual = 6.08332e-06, No Iterations 3
DICPCG:  Solving for p, Initial residual = 0.00134374, Final residual = 6.35917e-05, No Iterations 335
time step continuity errors : sum local = 2.8285e-11, global = -3.55606e-22, cumulative = 2.04482e-23
DICPCG:  Solving for p, Initial residual = 0.00115042, Final residual = 9.83819e-07, No Iterations 784
time step continuity errors : sum local = 4.27566e-13, global = -3.6922e-22, cumulative = -3.48772e-22
ExecutionTime = 124.41 s  ClockTime = 125 s

Time = 0.00079

Courant Number mean: 0.00122636 max: 0.0478772
smoothSolver:  Solving for Ux, Initial residual = 0.00297389, Final residual = 5.55344e-06, No Iterations 3
smoothSolver:  Solving for Uy, Initial residual = 0.00317899, Final residual = 6.00435e-06, No Iterations 3
DICPCG:  Solving for p, Initial residual = 0.00132959, Final residual = 6.23239e-05, No Iterations 335
time step continuity errors : sum local = 2.77291e-11, global = 3.43864e-22, cumulative = -4.90744e-24
DICPCG:  Solving for p, Initial residual = 0.00113943, Final residual = 9.65022e-07, No Iterations 784
time step continuity errors : sum local = 4.19512e-13, global = 5.93095e-23, cumulative = 5.44021e-23
ExecutionTime = 125.71 s  ClockTime = 126 s

Time = 0.0008

Courant Number mean: 0.00123369 max: 0.047898
smoothSolver:  Solving for Ux, Initial residual = 0.00293615, Final residual = 5.48436e-06, No Iterations 3
smoothSolver:  Solving for Uy, Initial residual = 0.00313807, Final residual = 5.9274e-06, No Iterations 3
DICPCG:  Solving for p, Initial residual = 0.00131572, Final residual = 6.52835e-05, No Iterations 334
time step continuity errors : sum local = 2.90076e-11, global = 3.94946e-22, cumulative = 4.49348e-22
DICPCG:  Solving for p, Initial residual = 0.00112896, Final residual = 9.41056e-07, No Iterations 784
time step continuity errors : sum local = 4.09208e-13, global = 2.1303e-22, cumulative = 6.62378e-22
ExecutionTime = 127.01 s  ClockTime = 127 s

Time = 0.00081

Courant Number mean: 0.00124096 max: 0.0479183
smoothSolver:  Solving for Ux, Initial residual = 0.00289935, Final residual = 5.41694e-06, No Iterations 3
smoothSolver:  Solving for Uy, Initial residual = 0.00309818, Final residual = 5.85239e-06, No Iterations 3
DICPCG:  Solving for p, Initial residual = 0.00130391, Final residual = 6.40355e-05, No Iterations 334
time step continuity errors : sum local = 2.84602e-11, global = 1.03454e-22, cumulative = 7.65832e-22
DICPCG:  Solving for p, Initial residual = 0.00112223, Final residual = 9.23709e-07, No Iterations 784
time step continuity errors : sum local = 4.01773e-13, global = 1.19441e-22, cumulative = 8.85273e-22
ExecutionTime = 128.31 s  ClockTime = 129 s

Time = 0.00082

Courant Number mean: 0.00124818 max: 0.0479383
smoothSolver:  Solving for Ux, Initial residual = 0.00286345, Final residual = 5.35126e-06, No Iterations 3
smoothSolver:  Solving for Uy, Initial residual = 0.00305929, Final residual = 5.77925e-06, No Iterations 3
DICPCG:  Solving for p, Initial residual = 0.00129059, Final residual = 6.28166e-05, No Iterations 334
time step continuity errors : sum local = 2.79262e-11, global = 4.3046e-22, cumulative = 1.31573e-21
DICPCG:  Solving for p, Initial residual = 0.00111189, Final residual = 9.97355e-07, No Iterations 783
time step continuity errors : sum local = 4.33905e-13, global = 2.67943e-22, cumulative = 1.58368e-21
ExecutionTime = 129.62 s  ClockTime = 130 s

Time = 0.00083

Courant Number mean: 0.00125534 max: 0.0479579
smoothSolver:  Solving for Ux, Initial residual = 0.00282841, Final residual = 5.28723e-06, No Iterations 3
smoothSolver:  Solving for Uy, Initial residual = 0.00302136, Final residual = 5.70791e-06, No Iterations 3
DICPCG:  Solving for p, Initial residual = 0.00127782, Final residual = 6.16318e-05, No Iterations 334
time step continuity errors : sum local = 2.74064e-11, global = -3.5513e-23, cumulative = 1.54816e-21
DICPCG:  Solving for p, Initial residual = 0.0011019, Final residual = 9.80007e-07, No Iterations 783
time step continuity errors : sum local = 4.26466e-13, global = 4.39263e-22, cumulative = 1.98743e-21
ExecutionTime = 130.92 s  ClockTime = 131 s

Time = 0.00084

Courant Number mean: 0.00126245 max: 0.0479771
smoothSolver:  Solving for Ux, Initial residual = 0.00279419, Final residual = 5.22476e-06, No Iterations 3
smoothSolver:  Solving for Uy, Initial residual = 0.00298435, Final residual = 5.63831e-06, No Iterations 3
DICPCG:  Solving for p, Initial residual = 0.0012653, Final residual = 6.04854e-05, No Iterations 334
time step continuity errors : sum local = 2.69037e-11, global = 5.15884e-22, cumulative = 2.50331e-21
DICPCG:  Solving for p, Initial residual = 0.00109215, Final residual = 9.63081e-07, No Iterations 783
time step continuity errors : sum local = 4.19204e-13, global = -2.14916e-22, cumulative = 2.28839e-21
ExecutionTime = 132.22 s  ClockTime = 133 s

Time = 0.00085

Courant Number mean: 0.00126951 max: 0.047996
smoothSolver:  Solving for Ux, Initial residual = 0.00276078, Final residual = 5.16377e-06, No Iterations 3
smoothSolver:  Solving for Uy, Initial residual = 0.00294823, Final residual = 5.57037e-06, No Iterations 3
DICPCG:  Solving for p, Initial residual = 0.00125359, Final residual = 6.21015e-05, No Iterations 333
time step continuity errors : sum local = 2.76e-11, global = -2.37576e-22, cumulative = 2.05082e-21
DICPCG:  Solving for p, Initial residual = 0.00108264, Final residual = 9.46707e-07, No Iterations 783
time step continuity errors : sum local = 4.12179e-13, global = -3.54991e-22, cumulative = 1.69583e-21
ExecutionTime = 133.53 s  ClockTime = 134 s

Time = 0.00086

Courant Number mean: 0.00127651 max: 0.0480146
smoothSolver:  Solving for Ux, Initial residual = 0.00272821, Final residual = 5.10418e-06, No Iterations 3
smoothSolver:  Solving for Uy, Initial residual = 0.00291297, Final residual = 5.50405e-06, No Iterations 3
DICPCG:  Solving for p, Initial residual = 0.00124317, Final residual = 6.09605e-05, No Iterations 333
time step continuity errors : sum local = 2.70992e-11, global = -4.86259e-22, cumulative = 1.20957e-21
DICPCG:  Solving for p, Initial residual = 0.00107678, Final residual = 9.94571e-07, No Iterations 782
time step continuity errors : sum local = 4.33118e-13, global = 6.0994e-22, cumulative = 1.81951e-21
ExecutionTime = 134.83 s  ClockTime = 135 s

Time = 0.00087

Courant Number mean: 0.00128347 max: 0.0480328
smoothSolver:  Solving for Ux, Initial residual = 0.00269642, Final residual = 5.04593e-06, No Iterations 3
smoothSolver:  Solving for Uy, Initial residual = 0.00287853, Final residual = 5.43929e-06, No Iterations 3
DICPCG:  Solving for p, Initial residual = 0.00123101, Final residual = 5.98614e-05, No Iterations 333
time step continuity errors : sum local = 2.66174e-11, global = -1.00029e-22, cumulative = 1.71948e-21
DICPCG:  Solving for p, Initial residual = 0.00106749, Final residual = 9.78642e-07, No Iterations 782
time step continuity errors : sum local = 4.26281e-13, global = 2.18575e-22, cumulative = 1.93805e-21
ExecutionTime = 136.14 s  ClockTime = 136 s

Time = 0.00088

Courant Number mean: 0.0012904 max: 0.0480507
smoothSolver:  Solving for Ux, Initial residual = 0.00266536, Final residual = 4.98893e-06, No Iterations 3
smoothSolver:  Solving for Uy, Initial residual = 0.0028449, Final residual = 5.37602e-06, No Iterations 3
DICPCG:  Solving for p, Initial residual = 0.00121959, Final residual = 5.87821e-05, No Iterations 333
time step continuity errors : sum local = 2.61436e-11, global = 1.04374e-22, cumulative = 2.04243e-21
DICPCG:  Solving for p, Initial residual = 0.00105844, Final residual = 9.78558e-07, No Iterations 781
time step continuity errors : sum local = 4.26363e-13, global = 3.04709e-22, cumulative = 2.34714e-21
ExecutionTime = 137.44 s  ClockTime = 138 s

Time = 0.00089

Courant Number mean: 0.00129728 max: 0.0480683
smoothSolver:  Solving for Ux, Initial residual = 0.00263497, Final residual = 4.93315e-06, No Iterations 3
smoothSolver:  Solving for Uy, Initial residual = 0.00281204, Final residual = 5.31421e-06, No Iterations 3
DICPCG:  Solving for p, Initial residual = 0.00120841, Final residual = 5.77334e-05, No Iterations 333
time step continuity errors : sum local = 2.56836e-11, global = -3.81583e-23, cumulative = 2.30898e-21
DICPCG:  Solving for p, Initial residual = 0.00104958, Final residual = 9.79246e-07, No Iterations 781
time step continuity errors : sum local = 4.26751e-13, global = 2.14924e-22, cumulative = 2.5239e-21
ExecutionTime = 138.74 s  ClockTime = 139 s

Time = 0.0009

Courant Number mean: 0.00130412 max: 0.0480856
smoothSolver:  Solving for Ux, Initial residual = 0.00260526, Final residual = 4.87854e-06, No Iterations 3
smoothSolver:  Solving for Uy, Initial residual = 0.00277992, Final residual = 5.25379e-06, No Iterations 3
DICPCG:  Solving for p, Initial residual = 0.00119742, Final residual = 5.96625e-05, No Iterations 332
time step continuity errors : sum local = 2.65172e-11, global = -2.11486e-22, cumulative = 2.31242e-21
DICPCG:  Solving for p, Initial residual = 0.00104077, Final residual = 9.42675e-07, No Iterations 780
time step continuity errors : sum local = 4.10933e-13, global = 9.70498e-23, cumulative = 2.40947e-21
ExecutionTime = 140.04 s  ClockTime = 140 s

Time = 0.00091

Courant Number mean: 0.00131091 max: 0.0481026
smoothSolver:  Solving for Ux, Initial residual = 0.00257619, Final residual = 4.82513e-06, No Iterations 3
smoothSolver:  Solving for Uy, Initial residual = 0.00274853, Final residual = 5.19473e-06, No Iterations 3
DICPCG:  Solving for p, Initial residual = 0.00118803, Final residual = 5.8635e-05, No Iterations 332
time step continuity errors : sum local = 2.6066e-11, global = -3.16297e-22, cumulative = 2.09317e-21
DICPCG:  Solving for p, Initial residual = 0.00103558, Final residual = 9.49373e-07, No Iterations 781
time step continuity errors : sum local = 4.13916e-13, global = -4.50841e-22, cumulative = 1.64233e-21
ExecutionTime = 141.33 s  ClockTime = 142 s

Time = 0.00092

Courant Number mean: 0.00131767 max: 0.0481193
smoothSolver:  Solving for Ux, Initial residual = 0.00254775, Final residual = 4.77292e-06, No Iterations 3
smoothSolver:  Solving for Uy, Initial residual = 0.00271783, Final residual = 5.13698e-06, No Iterations 3
DICPCG:  Solving for p, Initial residual = 0.00117743, Final residual = 5.76125e-05, No Iterations 332
time step continuity errors : sum local = 2.56177e-11, global = 5.45084e-22, cumulative = 2.18741e-21
DICPCG:  Solving for p, Initial residual = 0.00102716, Final residual = 9.79128e-07, No Iterations 780
time step continuity errors : sum local = 4.26969e-13, global = 5.72525e-22, cumulative = 2.75994e-21
ExecutionTime = 142.63 s  ClockTime = 143 s

Time = 0.00093

Courant Number mean: 0.00132437 max: 0.0481357
smoothSolver:  Solving for Ux, Initial residual = 0.00251992, Final residual = 4.72188e-06, No Iterations 3
smoothSolver:  Solving for Uy, Initial residual = 0.0026878, Final residual = 5.08049e-06, No Iterations 3
DICPCG:  Solving for p, Initial residual = 0.00116731, Final residual = 5.66253e-05, No Iterations 332
time step continuity errors : sum local = 2.51841e-11, global = -3.8448e-22, cumulative = 2.37546e-21
DICPCG:  Solving for p, Initial residual = 0.00101901, Final residual = 9.86972e-07, No Iterations 780
time step continuity errors : sum local = 4.30477e-13, global = 4.67419e-22, cumulative = 2.84288e-21
ExecutionTime = 143.93 s  ClockTime = 144 s

Time = 0.00094

Courant Number mean: 0.00133104 max: 0.0481519
smoothSolver:  Solving for Ux, Initial residual = 0.00249267, Final residual = 4.67195e-06, No Iterations 3
smoothSolver:  Solving for Uy, Initial residual = 0.00265843, Final residual = 5.02523e-06, No Iterations 3
DICPCG:  Solving for p, Initial residual = 0.00115734, Final residual = 5.56643e-05, No Iterations 332
time step continuity errors : sum local = 2.47623e-11, global = -6.19985e-22, cumulative = 2.22289e-21
DICPCG:  Solving for p, Initial residual = 0.00101099, Final residual = 9.93477e-07, No Iterations 779
time step continuity errors : sum local = 4.33408e-13, global = 3.54082e-22, cumulative = 2.57697e-21
ExecutionTime = 145.23 s  ClockTime = 146 s

Time = 0.00095

Courant Number mean: 0.00133766 max: 0.0481678
smoothSolver:  Solving for Ux, Initial residual = 0.00246599, Final residual = 4.62306e-06, No Iterations 3
smoothSolver:  Solving for Uy, Initial residual = 0.00262969, Final residual = 4.97115e-06, No Iterations 3
DICPCG:  Solving for p, Initial residual = 0.00114758, Final residual = 5.69468e-05, No Iterations 331
time step continuity errors : sum local = 2.53161e-11, global = -5.22012e-23, cumulative = 2.52477e-21
DICPCG:  Solving for p, Initial residual = 0.00100326, Final residual = 9.72672e-07, No Iterations 778
time step continuity errors : sum local = 4.24428e-13, global = 7.18433e-23, cumulative = 2.59662e-21
ExecutionTime = 146.52 s  ClockTime = 147 s

Time = 0.00096

Courant Number mean: 0.00134424 max: 0.0481834
smoothSolver:  Solving for Ux, Initial residual = 0.00243991, Final residual = 4.57518e-06, No Iterations 3
smoothSolver:  Solving for Uy, Initial residual = 0.00260156, Final residual = 4.91823e-06, No Iterations 3
DICPCG:  Solving for p, Initial residual = 0.00113932, Final residual = 5.59858e-05, No Iterations 331
time step continuity errors : sum local = 2.48938e-11, global = 2.03774e-22, cumulative = 2.80039e-21
DICPCG:  Solving for p, Initial residual = 0.000998746, Final residual = 9.90628e-07, No Iterations 778
time step continuity errors : sum local = 4.32338e-13, global = -2.29351e-22, cumulative = 2.57104e-21
ExecutionTime = 147.81 s  ClockTime = 148 s

Time = 0.00097

Courant Number mean: 0.00135078 max: 0.0481988
smoothSolver:  Solving for Ux, Initial residual = 0.0024144, Final residual = 4.52827e-06, No Iterations 3
smoothSolver:  Solving for Uy, Initial residual = 0.00257402, Final residual = 4.86641e-06, No Iterations 3
DICPCG:  Solving for p, Initial residual = 0.00112978, Final residual = 5.50646e-05, No Iterations 331
time step continuity errors : sum local = 2.44897e-11, global = 4.01401e-22, cumulative = 2.97244e-21
DICPCG:  Solving for p, Initial residual = 0.000991095, Final residual = 9.73513e-07, No Iterations 778
time step continuity errors : sum local = 4.24953e-13, global = -1.6403e-22, cumulative = 2.80841e-21
ExecutionTime = 149.14 s  ClockTime = 149 s

Time = 0.00098

Courant Number mean: 0.00135727 max: 0.048214
smoothSolver:  Solving for Ux, Initial residual = 0.00238942, Final residual = 4.4823e-06, No Iterations 3
smoothSolver:  Solving for Uy, Initial residual = 0.00254705, Final residual = 4.81567e-06, No Iterations 3
DICPCG:  Solving for p, Initial residual = 0.00112056, Final residual = 5.41456e-05, No Iterations 331
time step continuity errors : sum local = 2.40859e-11, global = 3.39095e-22, cumulative = 3.14751e-21
DICPCG:  Solving for p, Initial residual = 0.000983644, Final residual = 9.98344e-07, No Iterations 777
time step continuity errors : sum local = 4.35848e-13, global = -3.76876e-22, cumulative = 2.77063e-21
ExecutionTime = 150.44 s  ClockTime = 151 s

Time = 0.00099

Courant Number mean: 0.00136373 max: 0.0482289
smoothSolver:  Solving for Ux, Initial residual = 0.00236496, Final residual = 4.43724e-06, No Iterations 3
smoothSolver:  Solving for Uy, Initial residual = 0.00252064, Final residual = 4.76597e-06, No Iterations 3
DICPCG:  Solving for p, Initial residual = 0.00111157, Final residual = 5.32621e-05, No Iterations 331
time step continuity errors : sum local = 2.3698e-11, global = -2.7903e-22, cumulative = 2.4916e-21
DICPCG:  Solving for p, Initial residual = 0.000976332, Final residual = 9.46142e-07, No Iterations 777
time step continuity errors : sum local = 4.13155e-13, global = 2.48415e-23, cumulative = 2.51644e-21
ExecutionTime = 151.74 s  ClockTime = 152 s

Time = 0.001

Courant Number mean: 0.00137014 max: 0.0482436
smoothSolver:  Solving for Ux, Initial residual = 0.00234099, Final residual = 4.39306e-06, No Iterations 3
smoothSolver:  Solving for Uy, Initial residual = 0.00249477, Final residual = 4.71728e-06, No Iterations 3
DICPCG:  Solving for p, Initial residual = 0.00110268, Final residual = 5.47248e-05, No Iterations 330
time step continuity errors : sum local = 2.43311e-11, global = -8.32905e-22, cumulative = 1.68354e-21
DICPCG:  Solving for p, Initial residual = 0.000968243, Final residual = 9.66827e-07, No Iterations 777
time step continuity errors : sum local = 4.22248e-13, global = -3.64925e-22, cumulative = 1.31861e-21
ExecutionTime = 153.04 s  ClockTime = 153 s

End

Finalising parallel run
Mon May 28 11:14:49 -03 2018
