Mon May 28 11:40:10 -03 2018
/*---------------------------------------------------------------------------*\
| =========                 |                                                 |
| \\      /  F ield         | OpenFOAM: The Open Source CFD Toolbox           |
|  \\    /   O peration     | Version:  v1712                                 |
|   \\  /    A nd           | Web:      www.OpenFOAM.com                      |
|    \\/     M anipulation  |                                                 |
\*---------------------------------------------------------------------------*/
Build  : v1712
Arch   : "LSB;label=32;scalar=64"
Exec   : icoFoam -parallel
Date   : May 28 2018
Time   : 11:40:12
Host   : "n1"
PID    : 21931
I/O    : uncollated
Case   : /home/admceltab/OpenFOAM-v1712/tutorials/incompressible/icoFoam/cavityParallel/cavity/cavityParallel
nProcs : 2
Hosts  :
(
    (n1 2)
)
Pstream initialized with:
    floatTransfer      : 0
    nProcsSimpleSum    : 0
    commsType          : nonBlocking
    polling iterations : 0
trapFpe: Floating point exception trapping enabled (FOAM_SIGFPE).
fileModificationChecking : Monitoring run-time modified files using timeStampMaster (fileModificationSkew 10)
allowSystemOperations : Allowing user-supplied system call operations

// * * * * * * * * * * * * * * * * * * * * * * * * * * * * * * * * * * * * * //
Create time

Create mesh for time = 0


PISO: Operating solver in PISO mode

Reading transportProperties

Reading field p

Reading field U

Reading/calculating face flux field phi


Starting time loop

Time = 1e-05

Courant Number mean: 0 max: 0
smoothSolver:  Solving for Ux, Initial residual = 1, Final residual = 6.73751e-06, No Iterations 5
smoothSolver:  Solving for Uy, Initial residual = 0, Final residual = 0, No Iterations 0
DICPCG:  Solving for p, Initial residual = 1, Final residual = 0.0494918, No Iterations 727
time step continuity errors : sum local = 7.08442e-09, global = 4.24525e-23, cumulative = 4.24525e-23
DICPCG:  Solving for p, Initial residual = 0.287004, Final residual = 1.86667e-06, No Iterations 1001
time step continuity errors : sum local = 5.49056e-13, global = 2.51813e-23, cumulative = 6.76337e-23
ExecutionTime = 7.4 s  ClockTime = 7 s

Time = 2e-05

Courant Number mean: 9.48805e-05 max: 0.0153727
smoothSolver:  Solving for Ux, Initial residual = 0.287116, Final residual = 4.73121e-06, No Iterations 5
smoothSolver:  Solving for Uy, Initial residual = 0.331339, Final residual = 7.43335e-06, No Iterations 5
DICPCG:  Solving for p, Initial residual = 0.167239, Final residual = 0.0082941, No Iterations 720
time step continuity errors : sum local = 2.36076e-09, global = -1.38823e-22, cumulative = -7.11891e-23
DICPCG:  Solving for p, Initial residual = 0.0729613, Final residual = 9.67568e-07, No Iterations 984
time step continuity errors : sum local = 2.93461e-13, global = 5.79695e-23, cumulative = -1.32197e-23
ExecutionTime = 13.92 s  ClockTime = 14 s

Time = 3e-05

Courant Number mean: 0.000165071 max: 0.0245046
smoothSolver:  Solving for Ux, Initial residual = 0.1492, Final residual = 2.60717e-06, No Iterations 5
smoothSolver:  Solving for Uy, Initial residual = 0.174471, Final residual = 3.93137e-06, No Iterations 5
DICPCG:  Solving for p, Initial residual = 0.0832724, Final residual = 0.00399632, No Iterations 723
time step continuity errors : sum local = 1.2615e-09, global = 1.13801e-22, cumulative = 1.00581e-22
DICPCG:  Solving for p, Initial residual = 0.0397346, Final residual = 9.94936e-07, No Iterations 968
time step continuity errors : sum local = 3.26652e-13, global = -1.56385e-22, cumulative = -5.5804e-23
ExecutionTime = 20.41 s  ClockTime = 20 s

Time = 4e-05

Courant Number mean: 0.000219987 max: 0.0301337
smoothSolver:  Solving for Ux, Initial residual = 0.0948624, Final residual = 1.74698e-06, No Iterations 5
smoothSolver:  Solving for Uy, Initial residual = 0.110872, Final residual = 2.50802e-06, No Iterations 5
DICPCG:  Solving for p, Initial residual = 0.0509678, Final residual = 0.00245813, No Iterations 723
time step continuity errors : sum local = 8.30052e-10, global = 1.90423e-22, cumulative = 1.34619e-22
DICPCG:  Solving for p, Initial residual = 0.0249839, Final residual = 9.71586e-07, No Iterations 960
time step continuity errors : sum local = 3.36258e-13, global = -3.28037e-22, cumulative = -1.93418e-22
ExecutionTime = 26.86 s  ClockTime = 27 s

Time = 5e-05

Courant Number mean: 0.000265172 max: 0.0337531
smoothSolver:  Solving for Ux, Initial residual = 0.0676238, Final residual = 1.30342e-06, No Iterations 5
smoothSolver:  Solving for Uy, Initial residual = 0.078666, Final residual = 1.78537e-06, No Iterations 5
DICPCG:  Solving for p, Initial residual = 0.0357383, Final residual = 0.00178288, No Iterations 721
time step continuity errors : sum local = 6.30124e-10, global = 1.15737e-22, cumulative = -7.76809e-23
DICPCG:  Solving for p, Initial residual = 0.0160761, Final residual = 9.8217e-07, No Iterations 944
time step continuity errors : sum local = 3.53646e-13, global = 1.69848e-22, cumulative = 9.21669e-23
ExecutionTime = 33.24 s  ClockTime = 33 s

Time = 6e-05

Courant Number mean: 0.000303819 max: 0.0361877
smoothSolver:  Solving for Ux, Initial residual = 0.051955, Final residual = 8.5047e-06, No Iterations 4
smoothSolver:  Solving for Uy, Initial residual = 0.0600777, Final residual = 1.36715e-06, No Iterations 5
DICPCG:  Solving for p, Initial residual = 0.0256663, Final residual = 0.00123072, No Iterations 721
time step continuity errors : sum local = 4.50263e-10, global = 6.73356e-23, cumulative = 1.59503e-22
DICPCG:  Solving for p, Initial residual = 0.0115875, Final residual = 9.93886e-07, No Iterations 926
time step continuity errors : sum local = 3.68634e-13, global = -1.45409e-22, cumulative = 1.40936e-23
ExecutionTime = 39.56 s  ClockTime = 40 s

Time = 7e-05

Courant Number mean: 0.000337789 max: 0.0379014
smoothSolver:  Solving for Ux, Initial residual = 0.0420174, Final residual = 7.08258e-06, No Iterations 4
smoothSolver:  Solving for Uy, Initial residual = 0.0483121, Final residual = 9.33892e-06, No Iterations 4
DICPCG:  Solving for p, Initial residual = 0.0191631, Final residual = 0.000936454, No Iterations 720
time step continuity errors : sum local = 3.51556e-10, global = 2.76992e-23, cumulative = 4.17928e-23
DICPCG:  Solving for p, Initial residual = 0.00844019, Final residual = 9.98866e-07, No Iterations 908
time step continuity errors : sum local = 3.78959e-13, global = -2.04422e-22, cumulative = -1.62629e-22
ExecutionTime = 45.79 s  ClockTime = 46 s

Time = 8e-05

Courant Number mean: 0.000368424 max: 0.0391613
smoothSolver:  Solving for Ux, Initial residual = 0.0352623, Final residual = 6.08522e-06, No Iterations 4
smoothSolver:  Solving for Uy, Initial residual = 0.0403211, Final residual = 7.80575e-06, No Iterations 4
DICPCG:  Solving for p, Initial residual = 0.0155404, Final residual = 0.000745271, No Iterations 719
time step continuity errors : sum local = 2.85473e-10, global = -6.48174e-25, cumulative = -1.63277e-22
DICPCG:  Solving for p, Initial residual = 0.00664758, Final residual = 9.89474e-07, No Iterations 899
time step continuity errors : sum local = 3.82279e-13, global = 2.70076e-23, cumulative = -1.3627e-22
ExecutionTime = 51.98 s  ClockTime = 52 s

Time = 9e-05

Courant Number mean: 0.000396485 max: 0.0401249
smoothSolver:  Solving for Ux, Initial residual = 0.0303856, Final residual = 5.34505e-06, No Iterations 4
smoothSolver:  Solving for Uy, Initial residual = 0.0345846, Final residual = 6.70297e-06, No Iterations 4
DICPCG:  Solving for p, Initial residual = 0.0119033, Final residual = 0.000576734, No Iterations 719
time step continuity errors : sum local = 2.24288e-10, global = -1.13965e-22, cumulative = -2.50235e-22
DICPCG:  Solving for p, Initial residual = 0.00531278, Final residual = 9.91699e-07, No Iterations 892
time step continuity errors : sum local = 3.87997e-13, global = -5.39546e-23, cumulative = -3.0419e-22
ExecutionTime = 58.15 s  ClockTime = 58 s

Time = 0.0001

Courant Number mean: 0.000422461 max: 0.0408874
smoothSolver:  Solving for Ux, Initial residual = 0.0267212, Final residual = 4.77297e-06, No Iterations 4
smoothSolver:  Solving for Uy, Initial residual = 0.0302811, Final residual = 5.87433e-06, No Iterations 4
DICPCG:  Solving for p, Initial residual = 0.00923836, Final residual = 0.000436061, No Iterations 720
time step continuity errors : sum local = 1.71433e-10, global = -1.9159e-22, cumulative = -4.9578e-22
DICPCG:  Solving for p, Initial residual = 0.00431941, Final residual = 9.93845e-07, No Iterations 871
time step continuity errors : sum local = 3.92342e-13, global = 2.05659e-22, cumulative = -2.9012e-22
ExecutionTime = 64.25 s  ClockTime = 64 s

Time = 0.00011

Courant Number mean: 0.000446738 max: 0.0415087
smoothSolver:  Solving for Ux, Initial residual = 0.023865, Final residual = 4.31802e-06, No Iterations 4
smoothSolver:  Solving for Uy, Initial residual = 0.0269371, Final residual = 5.22954e-06, No Iterations 4
DICPCG:  Solving for p, Initial residual = 0.00784759, Final residual = 0.000380732, No Iterations 719
time step continuity errors : sum local = 1.50961e-10, global = 8.92571e-23, cumulative = -2.00863e-22
DICPCG:  Solving for p, Initial residual = 0.00374696, Final residual = 9.54367e-07, No Iterations 867
time step continuity errors : sum local = 3.79663e-13, global = -1.13414e-23, cumulative = -2.12205e-22
ExecutionTime = 70.35 s  ClockTime = 70 s

Time = 0.00012

Courant Number mean: 0.000469685 max: 0.042027
smoothSolver:  Solving for Ux, Initial residual = 0.0215695, Final residual = 3.94583e-06, No Iterations 4
smoothSolver:  Solving for Uy, Initial residual = 0.0242638, Final residual = 4.71349e-06, No Iterations 4
DICPCG:  Solving for p, Initial residual = 0.00695778, Final residual = 0.000343587, No Iterations 718
time step continuity errors : sum local = 1.37238e-10, global = 8.96425e-23, cumulative = -1.22562e-22
DICPCG:  Solving for p, Initial residual = 0.0033279, Final residual = 9.74694e-07, No Iterations 850
time step continuity errors : sum local = 3.90475e-13, global = -2.35799e-22, cumulative = -3.58361e-22
ExecutionTime = 76.36 s  ClockTime = 76 s

Time = 0.00013

Courant Number mean: 0.000491451 max: 0.042468
smoothSolver:  Solving for Ux, Initial residual = 0.019688, Final residual = 3.63472e-06, No Iterations 4
smoothSolver:  Solving for Uy, Initial residual = 0.0220773, Final residual = 4.29096e-06, No Iterations 4
DICPCG:  Solving for p, Initial residual = 0.00613681, Final residual = 0.000292341, No Iterations 718
time step continuity errors : sum local = 1.17516e-10, global = 3.42392e-22, cumulative = -1.59687e-23
DICPCG:  Solving for p, Initial residual = 0.00296813, Final residual = 9.52518e-07, No Iterations 845
time step continuity errors : sum local = 3.83848e-13, global = -3.514e-22, cumulative = -3.67368e-22
ExecutionTime = 82.34 s  ClockTime = 82 s

Time = 0.00014

Courant Number mean: 0.000512174 max: 0.0428494
smoothSolver:  Solving for Ux, Initial residual = 0.0181141, Final residual = 3.37071e-06, No Iterations 4
smoothSolver:  Solving for Uy, Initial residual = 0.0202548, Final residual = 3.9385e-06, No Iterations 4
DICPCG:  Solving for p, Initial residual = 0.00546401, Final residual = 0.000271063, No Iterations 717
time step continuity errors : sum local = 1.09566e-10, global = 1.85538e-23, cumulative = -3.48815e-22
DICPCG:  Solving for p, Initial residual = 0.00265617, Final residual = 9.80305e-07, No Iterations 841
time step continuity errors : sum local = 3.97058e-13, global = -3.3122e-22, cumulative = -6.80034e-22
ExecutionTime = 88.3 s  ClockTime = 88 s

Time = 0.00015

Courant Number mean: 0.000531963 max: 0.0431836
smoothSolver:  Solving for Ux, Initial residual = 0.0167761, Final residual = 3.14411e-06, No Iterations 4
smoothSolver:  Solving for Uy, Initial residual = 0.0187118, Final residual = 3.63989e-06, No Iterations 4
DICPCG:  Solving for p, Initial residual = 0.00490829, Final residual = 0.000237837, No Iterations 717
time step continuity errors : sum local = 9.66015e-11, global = 2.49461e-22, cumulative = -4.30573e-22
DICPCG:  Solving for p, Initial residual = 0.00241436, Final residual = 9.55771e-07, No Iterations 839
time step continuity errors : sum local = 3.88874e-13, global = 2.8274e-22, cumulative = -1.47833e-22
ExecutionTime = 94.33 s  ClockTime = 94 s

Time = 0.00016

Courant Number mean: 0.000550992 max: 0.0434798
smoothSolver:  Solving for Ux, Initial residual = 0.0156275, Final residual = 2.94693e-06, No Iterations 4
smoothSolver:  Solving for Uy, Initial residual = 0.0173883, Final residual = 3.38359e-06, No Iterations 4
DICPCG:  Solving for p, Initial residual = 0.00443734, Final residual = 0.0002115, No Iterations 717
time step continuity errors : sum local = 8.62713e-11, global = -2.50986e-23, cumulative = -1.72931e-22
DICPCG:  Solving for p, Initial residual = 0.00220519, Final residual = 9.77993e-07, No Iterations 836
time step continuity errors : sum local = 3.99512e-13, global = -7.68438e-23, cumulative = -2.49775e-22
ExecutionTime = 100.34 s  ClockTime = 100 s

Time = 0.00017

Courant Number mean: 0.000569336 max: 0.0437447
smoothSolver:  Solving for Ux, Initial residual = 0.0146283, Final residual = 2.77345e-06, No Iterations 4
smoothSolver:  Solving for Uy, Initial residual = 0.0162402, Final residual = 3.16113e-06, No Iterations 4
DICPCG:  Solving for p, Initial residual = 0.00406326, Final residual = 0.00019896, No Iterations 716
time step continuity errors : sum local = 8.14676e-11, global = -1.50309e-22, cumulative = -4.00084e-22
DICPCG:  Solving for p, Initial residual = 0.00202662, Final residual = 9.8955e-07, No Iterations 834
time step continuity errors : sum local = 4.05691e-13, global = 3.91207e-23, cumulative = -3.60963e-22
ExecutionTime = 106.33 s  ClockTime = 106 s

Time = 0.00018

Courant Number mean: 0.000587037 max: 0.0439835
smoothSolver:  Solving for Ux, Initial residual = 0.0137494, Final residual = 2.61955e-06, No Iterations 4
smoothSolver:  Solving for Uy, Initial residual = 0.0152346, Final residual = 2.9662e-06, No Iterations 4
DICPCG:  Solving for p, Initial residual = 0.00374163, Final residual = 0.00018173, No Iterations 716
time step continuity errors : sum local = 7.4668e-11, global = 1.98351e-22, cumulative = -1.62612e-22
DICPCG:  Solving for p, Initial residual = 0.00188696, Final residual = 9.88467e-07, No Iterations 831
time step continuity errors : sum local = 4.0657e-13, global = 1.4473e-23, cumulative = -1.48139e-22
ExecutionTime = 112.31 s  ClockTime = 112 s

Time = 0.00019

Courant Number mean: 0.000604142 max: 0.0442003
smoothSolver:  Solving for Ux, Initial residual = 0.0129704, Final residual = 2.48245e-06, No Iterations 4
smoothSolver:  Solving for Uy, Initial residual = 0.0143464, Final residual = 2.79397e-06, No Iterations 4
DICPCG:  Solving for p, Initial residual = 0.00345595, Final residual = 0.00016518, No Iterations 716
time step continuity errors : sum local = 6.80791e-11, global = -1.97213e-22, cumulative = -3.45352e-22
DICPCG:  Solving for p, Initial residual = 0.00174981, Final residual = 9.85403e-07, No Iterations 826
time step continuity errors : sum local = 4.0656e-13, global = 2.82957e-23, cumulative = -3.17056e-22
ExecutionTime = 118.3 s  ClockTime = 118 s

Time = 0.0002

Courant Number mean: 0.000620698 max: 0.0443983
smoothSolver:  Solving for Ux, Initial residual = 0.0122776, Final residual = 2.35932e-06, No Iterations 4
smoothSolver:  Solving for Uy, Initial residual = 0.0135562, Final residual = 2.64066e-06, No Iterations 4
DICPCG:  Solving for p, Initial residual = 0.0032135, Final residual = 0.000157644, No Iterations 715
time step continuity errors : sum local = 6.51582e-11, global = -1.89769e-23, cumulative = -3.36033e-22
DICPCG:  Solving for p, Initial residual = 0.0016303, Final residual = 9.88219e-07, No Iterations 823
time step continuity errors : sum local = 4.08831e-13, global = -3.48107e-23, cumulative = -3.70844e-22
ExecutionTime = 124.25 s  ClockTime = 124 s

Time = 0.00021

Courant Number mean: 0.000636768 max: 0.0445801
smoothSolver:  Solving for Ux, Initial residual = 0.0116565, Final residual = 2.24811e-06, No Iterations 4
smoothSolver:  Solving for Uy, Initial residual = 0.0128485, Final residual = 2.50331e-06, No Iterations 4
DICPCG:  Solving for p, Initial residual = 0.00299166, Final residual = 0.000145807, No Iterations 715
time step continuity errors : sum local = 6.04231e-11, global = -2.33377e-22, cumulative = -6.0422e-22
DICPCG:  Solving for p, Initial residual = 0.00152678, Final residual = 9.73941e-07, No Iterations 821
time step continuity errors : sum local = 4.03977e-13, global = -1.39778e-22, cumulative = -7.43998e-22
ExecutionTime = 130.18 s  ClockTime = 130 s

Time = 0.00022

Courant Number mean: 0.000652426 max: 0.0447478
smoothSolver:  Solving for Ux, Initial residual = 0.0110949, Final residual = 2.14691e-06, No Iterations 4
smoothSolver:  Solving for Uy, Initial residual = 0.012211, Final residual = 2.37955e-06, No Iterations 4
DICPCG:  Solving for p, Initial residual = 0.00278838, Final residual = 0.000134963, No Iterations 715
time step continuity errors : sum local = 5.60641e-11, global = -6.71939e-23, cumulative = -8.11192e-22
DICPCG:  Solving for p, Initial residual = 0.00143939, Final residual = 9.8007e-07, No Iterations 819
time step continuity errors : sum local = 4.0749e-13, global = -2.32392e-22, cumulative = -1.04358e-21
ExecutionTime = 136.11 s  ClockTime = 136 s

Time = 0.00023

Courant Number mean: 0.000667675 max: 0.0449032
smoothSolver:  Solving for Ux, Initial residual = 0.0105841, Final residual = 2.05454e-06, No Iterations 4
smoothSolver:  Solving for Uy, Initial residual = 0.0116338, Final residual = 2.26745e-06, No Iterations 4
DICPCG:  Solving for p, Initial residual = 0.00264716, Final residual = 0.000130874, No Iterations 714
time step continuity errors : sum local = 5.44875e-11, global = 4.42052e-23, cumulative = -9.99379e-22
DICPCG:  Solving for p, Initial residual = 0.00135978, Final residual = 9.97714e-07, No Iterations 817
time step continuity errors : sum local = 4.15761e-13, global = -1.91838e-22, cumulative = -1.19122e-21
ExecutionTime = 142.04 s  ClockTime = 142 s

Time = 0.00024

Courant Number mean: 0.000682533 max: 0.0450476
smoothSolver:  Solving for Ux, Initial residual = 0.0101194, Final residual = 1.96998e-06, No Iterations 4
smoothSolver:  Solving for Uy, Initial residual = 0.0111086, Final residual = 2.16543e-06, No Iterations 4
DICPCG:  Solving for p, Initial residual = 0.00249664, Final residual = 0.000121875, No Iterations 714
time step continuity errors : sum local = 5.08457e-11, global = 5.9258e-23, cumulative = -1.13196e-21
DICPCG:  Solving for p, Initial residual = 0.00128304, Final residual = 9.75012e-07, No Iterations 816
time step continuity errors : sum local = 4.07145e-13, global = 4.02409e-22, cumulative = -7.2955e-22
ExecutionTime = 147.96 s  ClockTime = 148 s

Time = 0.00025

Courant Number mean: 0.000697021 max: 0.0451823
smoothSolver:  Solving for Ux, Initial residual = 0.00969454, Final residual = 1.89223e-06, No Iterations 4
smoothSolver:  Solving for Uy, Initial residual = 0.0106287, Final residual = 2.07219e-06, No Iterations 4
DICPCG:  Solving for p, Initial residual = 0.00233564, Final residual = 0.00011321, No Iterations 714
time step continuity errors : sum local = 4.73212e-11, global = -2.01088e-22, cumulative = -9.30638e-22
DICPCG:  Solving for p, Initial residual = 0.00122036, Final residual = 9.67011e-07, No Iterations 815
time step continuity errors : sum local = 4.04579e-13, global = 2.03184e-22, cumulative = -7.27454e-22
ExecutionTime = 153.87 s  ClockTime = 154 s

Time = 0.00026

Courant Number mean: 0.000711159 max: 0.0453085
smoothSolver:  Solving for Ux, Initial residual = 0.00930418, Final residual = 1.82049e-06, No Iterations 4
smoothSolver:  Solving for Uy, Initial residual = 0.0101885, Final residual = 1.98664e-06, No Iterations 4
DICPCG:  Solving for p, Initial residual = 0.00220848, Final residual = 0.000105456, No Iterations 714
time step continuity errors : sum local = 4.41591e-11, global = -2.02045e-22, cumulative = -9.29498e-22
DICPCG:  Solving for p, Initial residual = 0.00115546, Final residual = 9.5762e-07, No Iterations 814
time step continuity errors : sum local = 4.01369e-13, global = -2.06971e-22, cumulative = -1.13647e-21
ExecutionTime = 159.8 s  ClockTime = 160 s

Time = 0.00027

Courant Number mean: 0.000724968 max: 0.0454268
smoothSolver:  Solving for Ux, Initial residual = 0.00894411, Final residual = 1.75404e-06, No Iterations 4
smoothSolver:  Solving for Uy, Initial residual = 0.00978328, Final residual = 1.90787e-06, No Iterations 4
DICPCG:  Solving for p, Initial residual = 0.00209319, Final residual = 0.000103783, No Iterations 713
time step continuity errors : sum local = 4.35326e-11, global = 2.54182e-22, cumulative = -8.82287e-22
DICPCG:  Solving for p, Initial residual = 0.00109817, Final residual = 9.54546e-07, No Iterations 813
time step continuity errors : sum local = 4.00744e-13, global = 1.37574e-23, cumulative = -8.6853e-22
ExecutionTime = 165.75 s  ClockTime = 166 s

Time = 0.00028

Courant Number mean: 0.000738514 max: 0.0455382
smoothSolver:  Solving for Ux, Initial residual = 0.00861053, Final residual = 1.69231e-06, No Iterations 4
smoothSolver:  Solving for Uy, Initial residual = 0.00940899, Final residual = 1.8351e-06, No Iterations 4
DICPCG:  Solving for p, Initial residual = 0.00199022, Final residual = 9.78385e-05, No Iterations 713
time step continuity errors : sum local = 4.11042e-11, global = 3.10288e-22, cumulative = -5.58242e-22
DICPCG:  Solving for p, Initial residual = 0.0010515, Final residual = 9.97503e-07, No Iterations 811
time step continuity errors : sum local = 4.19444e-13, global = 8.42187e-24, cumulative = -5.4982e-22
ExecutionTime = 171.69 s  ClockTime = 172 s

Time = 0.00029

Courant Number mean: 0.00075179 max: 0.0456432
smoothSolver:  Solving for Ux, Initial residual = 0.00830144, Final residual = 1.63484e-06, No Iterations 4
smoothSolver:  Solving for Uy, Initial residual = 0.00906222, Final residual = 1.76766e-06, No Iterations 4
DICPCG:  Solving for p, Initial residual = 0.001892, Final residual = 9.22759e-05, No Iterations 713
time step continuity errors : sum local = 3.88249e-11, global = -2.87927e-22, cumulative = -8.37747e-22
DICPCG:  Solving for p, Initial residual = 0.00100335, Final residual = 9.37079e-07, No Iterations 811
time step continuity errors : sum local = 3.94606e-13, global = -2.39227e-22, cumulative = -1.07697e-21
ExecutionTime = 177.63 s  ClockTime = 178 s

Time = 0.0003

Courant Number mean: 0.000764804 max: 0.0457425
smoothSolver:  Solving for Ux, Initial residual = 0.00801393, Final residual = 1.58116e-06, No Iterations 4
smoothSolver:  Solving for Uy, Initial residual = 0.00874006, Final residual = 1.705e-06, No Iterations 4
DICPCG:  Solving for p, Initial residual = 0.00180447, Final residual = 9.00587e-05, No Iterations 712
time step continuity errors : sum local = 3.7946e-11, global = 4.08264e-23, cumulative = -1.03615e-21
DICPCG:  Solving for p, Initial residual = 0.000958273, Final residual = 9.56453e-07, No Iterations 810
time step continuity errors : sum local = 4.03325e-13, global = 3.28283e-22, cumulative = -7.07865e-22
ExecutionTime = 183.56 s  ClockTime = 184 s

Time = 0.00031

Courant Number mean: 0.000777563 max: 0.0458365
smoothSolver:  Solving for Ux, Initial residual = 0.00774568, Final residual = 1.53094e-06, No Iterations 4
smoothSolver:  Solving for Uy, Initial residual = 0.00843996, Final residual = 1.64662e-06, No Iterations 4
DICPCG:  Solving for p, Initial residual = 0.00172668, Final residual = 8.47749e-05, No Iterations 712
time step continuity errors : sum local = 3.57673e-11, global = -2.76154e-22, cumulative = -9.84019e-22
DICPCG:  Solving for p, Initial residual = 0.000923008, Final residual = 9.76677e-07, No Iterations 808
time step continuity errors : sum local = 4.12444e-13, global = -1.41418e-22, cumulative = -1.12544e-21
ExecutionTime = 189.47 s  ClockTime = 190 s

Time = 0.00032

Courant Number mean: 0.000790076 max: 0.0459258
smoothSolver:  Solving for Ux, Initial residual = 0.00749473, Final residual = 1.48383e-06, No Iterations 4
smoothSolver:  Solving for Uy, Initial residual = 0.00815973, Final residual = 1.5921e-06, No Iterations 4
DICPCG:  Solving for p, Initial residual = 0.00165385, Final residual = 8.26188e-05, No Iterations 711
time step continuity errors : sum local = 3.49023e-11, global = -7.45812e-22, cumulative = -1.87125e-21
DICPCG:  Solving for p, Initial residual = 0.000883747, Final residual = 9.94298e-07, No Iterations 806
time step continuity errors : sum local = 4.20464e-13, global = -2.17571e-23, cumulative = -1.89301e-21
ExecutionTime = 195.37 s  ClockTime = 195 s

Time = 0.00033

Courant Number mean: 0.000802352 max: 0.0460106
smoothSolver:  Solving for Ux, Initial residual = 0.00725935, Final residual = 1.43952e-06, No Iterations 4
smoothSolver:  Solving for Uy, Initial residual = 0.00789747, Final residual = 1.54107e-06, No Iterations 4
DICPCG:  Solving for p, Initial residual = 0.00158751, Final residual = 7.89745e-05, No Iterations 711
time step continuity errors : sum local = 3.34027e-11, global = -1.85244e-22, cumulative = -2.07825e-21
DICPCG:  Solving for p, Initial residual = 0.000853898, Final residual = 9.97679e-07, No Iterations 805
time step continuity errors : sum local = 4.22408e-13, global = 3.60046e-22, cumulative = -1.7182e-21
ExecutionTime = 201.27 s  ClockTime = 201 s

Time = 0.00034

Courant Number mean: 0.000814401 max: 0.0460914
smoothSolver:  Solving for Ux, Initial residual = 0.00703885, Final residual = 1.39788e-06, No Iterations 4
smoothSolver:  Solving for Uy, Initial residual = 0.0076515, Final residual = 1.49319e-06, No Iterations 4
DICPCG:  Solving for p, Initial residual = 0.0015241, Final residual = 7.51796e-05, No Iterations 711
time step continuity errors : sum local = 3.18338e-11, global = -4.6747e-22, cumulative = -2.18567e-21
DICPCG:  Solving for p, Initial residual = 0.000821213, Final residual = 9.58493e-07, No Iterations 805
time step continuity errors : sum local = 4.06264e-13, global = 2.81841e-22, cumulative = -1.90383e-21
ExecutionTime = 207.21 s  ClockTime = 207 s

Time = 0.00035

Courant Number mean: 0.000826268 max: 0.0461685
smoothSolver:  Solving for Ux, Initial residual = 0.00683162, Final residual = 1.35863e-06, No Iterations 4
smoothSolver:  Solving for Uy, Initial residual = 0.00742035, Final residual = 1.4482e-06, No Iterations 4
DICPCG:  Solving for p, Initial residual = 0.00146478, Final residual = 7.1578e-05, No Iterations 711
time step continuity errors : sum local = 3.03415e-11, global = 2.3188e-22, cumulative = -1.67195e-21
DICPCG:  Solving for p, Initial residual = 0.0007903, Final residual = 9.68631e-07, No Iterations 804
time step continuity errors : sum local = 4.11014e-13, global = 3.40843e-22, cumulative = -1.33111e-21
ExecutionTime = 213.1 s  ClockTime = 213 s

Time = 0.00036

Courant Number mean: 0.000837952 max: 0.0462421
smoothSolver:  Solving for Ux, Initial residual = 0.0066361, Final residual = 1.32151e-06, No Iterations 4
smoothSolver:  Solving for Uy, Initial residual = 0.00720271, Final residual = 1.40583e-06, No Iterations 4
DICPCG:  Solving for p, Initial residual = 0.00140918, Final residual = 7.01127e-05, No Iterations 710
time step continuity errors : sum local = 2.97518e-11, global = 1.49364e-22, cumulative = -1.18174e-21
DICPCG:  Solving for p, Initial residual = 0.000759074, Final residual = 9.70392e-07, No Iterations 803
time step continuity errors : sum local = 4.12197e-13, global = 3.62044e-22, cumulative = -8.19701e-22
ExecutionTime = 218.99 s  ClockTime = 219 s

Time = 0.00037

Courant Number mean: 0.000849452 max: 0.0463125
smoothSolver:  Solving for Ux, Initial residual = 0.0064513, Final residual = 1.28637e-06, No Iterations 4
smoothSolver:  Solving for Uy, Initial residual = 0.00699743, Final residual = 1.36586e-06, No Iterations 4
DICPCG:  Solving for p, Initial residual = 0.00135845, Final residual = 6.73574e-05, No Iterations 710
time step continuity errors : sum local = 2.86108e-11, global = 1.15989e-22, cumulative = -7.03712e-22
DICPCG:  Solving for p, Initial residual = 0.000737513, Final residual = 9.81785e-07, No Iterations 801
time step continuity errors : sum local = 4.17485e-13, global = 2.13548e-22, cumulative = -4.90164e-22
ExecutionTime = 224.88 s  ClockTime = 225 s

Time = 0.00038

Courant Number mean: 0.000860774 max: 0.0463799
smoothSolver:  Solving for Ux, Initial residual = 0.00627633, Final residual = 1.25303e-06, No Iterations 4
smoothSolver:  Solving for Uy, Initial residual = 0.0068035, Final residual = 1.3281e-06, No Iterations 4
DICPCG:  Solving for p, Initial residual = 0.00130908, Final residual = 6.42892e-05, No Iterations 710
time step continuity errors : sum local = 2.73333e-11, global = 2.50419e-23, cumulative = -4.65122e-22
DICPCG:  Solving for p, Initial residual = 0.000711979, Final residual = 9.7111e-07, No Iterations 800
time step continuity errors : sum local = 4.13336e-13, global = -3.65495e-22, cumulative = -8.30617e-22
ExecutionTime = 230.76 s  ClockTime = 231 s

Time = 0.00039

Courant Number mean: 0.000871919 max: 0.0464446
smoothSolver:  Solving for Ux, Initial residual = 0.00611048, Final residual = 1.22136e-06, No Iterations 4
smoothSolver:  Solving for Uy, Initial residual = 0.00661999, Final residual = 1.29236e-06, No Iterations 4
DICPCG:  Solving for p, Initial residual = 0.00126393, Final residual = 6.298e-05, No Iterations 709
time step continuity errors : sum local = 2.68015e-11, global = 1.74655e-22, cumulative = -6.55962e-22
DICPCG:  Solving for p, Initial residual = 0.000687041, Final residual = 9.33722e-07, No Iterations 800
time step continuity errors : sum local = 3.97771e-13, global = 1.40333e-22, cumulative = -5.15629e-22
ExecutionTime = 236.64 s  ClockTime = 237 s

Time = 0.0004

Courant Number mean: 0.000882893 max: 0.0465066
smoothSolver:  Solving for Ux, Initial residual = 0.00595354, Final residual = 9.82833e-06, No Iterations 3
smoothSolver:  Solving for Uy, Initial residual = 0.00644609, Final residual = 1.25849e-06, No Iterations 4
DICPCG:  Solving for p, Initial residual = 0.00151191, Final residual = 7.31103e-05, No Iterations 534
time step continuity errors : sum local = 3.35055e-11, global = -2.27534e-22, cumulative = -7.43163e-22
DICPCG:  Solving for p, Initial residual = 0.000953639, Final residual = 9.70173e-07, No Iterations 800
time step continuity errors : sum local = 4.13797e-13, global = 6.19031e-22, cumulative = -1.24132e-22
ExecutionTime = 241.86 s  ClockTime = 242 s

Time = 0.00041

Courant Number mean: 0.000893698 max: 0.0465663
smoothSolver:  Solving for Ux, Initial residual = 0.00580426, Final residual = 9.58917e-06, No Iterations 3
smoothSolver:  Solving for Uy, Initial residual = 0.00628201, Final residual = 1.22655e-06, No Iterations 4
DICPCG:  Solving for p, Initial residual = 0.00146393, Final residual = 7.266e-05, No Iterations 363
time step continuity errors : sum local = 3.1991e-11, global = 2.32498e-22, cumulative = 1.08366e-22
DICPCG:  Solving for p, Initial residual = 0.000929446, Final residual = 9.5937e-07, No Iterations 800
time step continuity errors : sum local = 4.09498e-13, global = -2.49872e-24, cumulative = 1.05867e-22
ExecutionTime = 246.43 s  ClockTime = 247 s

Time = 0.00042

Courant Number mean: 0.000904341 max: 0.0466237
smoothSolver:  Solving for Ux, Initial residual = 0.00566301, Final residual = 9.36295e-06, No Iterations 3
smoothSolver:  Solving for Uy, Initial residual = 0.00612469, Final residual = 1.19588e-06, No Iterations 4
DICPCG:  Solving for p, Initial residual = 0.00142222, Final residual = 7.04494e-05, No Iterations 389
time step continuity errors : sum local = 3.20326e-11, global = -3.60821e-22, cumulative = -2.54953e-22
DICPCG:  Solving for p, Initial residual = 0.000907295, Final residual = 9.65283e-07, No Iterations 799
time step continuity errors : sum local = 4.12355e-13, global = -4.23898e-22, cumulative = -6.78852e-22
ExecutionTime = 251.08 s  ClockTime = 251 s

Time = 0.00043

Courant Number mean: 0.000914849 max: 0.0466789
smoothSolver:  Solving for Ux, Initial residual = 0.00552798, Final residual = 9.14664e-06, No Iterations 3
smoothSolver:  Solving for Uy, Initial residual = 0.00597588, Final residual = 9.87218e-06, No Iterations 3
DICPCG:  Solving for p, Initial residual = 0.00135754, Final residual = 6.74742e-05, No Iterations 363
time step continuity errors : sum local = 3.01956e-11, global = -9.53747e-23, cumulative = -7.74226e-22
DICPCG:  Solving for p, Initial residual = 0.000855426, Final residual = 9.49308e-07, No Iterations 798
time step continuity errors : sum local = 4.05819e-13, global = 1.07019e-22, cumulative = -6.67207e-22
ExecutionTime = 255.69 s  ClockTime = 256 s

Time = 0.00044

Courant Number mean: 0.000925232 max: 0.0467322
smoothSolver:  Solving for Ux, Initial residual = 0.00539939, Final residual = 8.94056e-06, No Iterations 3
smoothSolver:  Solving for Uy, Initial residual = 0.00583356, Final residual = 9.63743e-06, No Iterations 3
DICPCG:  Solving for p, Initial residual = 0.00131836, Final residual = 6.5878e-05, No Iterations 364
time step continuity errors : sum local = 2.99086e-11, global = -3.4387e-22, cumulative = -1.01108e-21
DICPCG:  Solving for p, Initial residual = 0.000843501, Final residual = 9.88884e-07, No Iterations 795
time step continuity errors : sum local = 4.23096e-13, global = 1.61055e-23, cumulative = -9.94971e-22
ExecutionTime = 260.23 s  ClockTime = 260 s

Time = 0.00045

Courant Number mean: 0.000935484 max: 0.0467835
smoothSolver:  Solving for Ux, Initial residual = 0.00527623, Final residual = 8.74309e-06, No Iterations 3
smoothSolver:  Solving for Uy, Initial residual = 0.00569817, Final residual = 9.4141e-06, No Iterations 3
DICPCG:  Solving for p, Initial residual = 0.0012847, Final residual = 6.38331e-05, No Iterations 362
time step continuity errors : sum local = 2.87098e-11, global = 1.52811e-22, cumulative = -8.42161e-22
DICPCG:  Solving for p, Initial residual = 0.000816444, Final residual = 9.51132e-07, No Iterations 795
time step continuity errors : sum local = 4.07221e-13, global = 2.70427e-22, cumulative = -5.71734e-22
ExecutionTime = 264.77 s  ClockTime = 265 s

Time = 0.00046

Courant Number mean: 0.000945604 max: 0.0468331
smoothSolver:  Solving for Ux, Initial residual = 0.00515881, Final residual = 8.55421e-06, No Iterations 3
smoothSolver:  Solving for Uy, Initial residual = 0.00556866, Final residual = 9.20045e-06, No Iterations 3
DICPCG:  Solving for p, Initial residual = 0.00125092, Final residual = 6.25037e-05, No Iterations 362
time step continuity errors : sum local = 2.83087e-11, global = 1.00881e-22, cumulative = -4.70853e-22
DICPCG:  Solving for p, Initial residual = 0.00081008, Final residual = 9.64789e-07, No Iterations 794
time step continuity errors : sum local = 4.13352e-13, global = -1.68749e-23, cumulative = -4.87728e-22
ExecutionTime = 269.3 s  ClockTime = 269 s

Time = 0.00047

Courant Number mean: 0.000955597 max: 0.046881
smoothSolver:  Solving for Ux, Initial residual = 0.00504656, Final residual = 8.37304e-06, No Iterations 3
smoothSolver:  Solving for Uy, Initial residual = 0.00544505, Final residual = 8.99652e-06, No Iterations 3
DICPCG:  Solving for p, Initial residual = 0.00121952, Final residual = 6.05182e-05, No Iterations 360
time step continuity errors : sum local = 2.72965e-11, global = 3.39526e-22, cumulative = -1.48202e-22
DICPCG:  Solving for p, Initial residual = 0.000780174, Final residual = 9.7916e-07, No Iterations 793
time step continuity errors : sum local = 4.19775e-13, global = 1.30824e-22, cumulative = -1.73778e-23
ExecutionTime = 273.83 s  ClockTime = 274 s

Time = 0.00048

Courant Number mean: 0.000965462 max: 0.0469273
smoothSolver:  Solving for Ux, Initial residual = 0.00493918, Final residual = 8.19945e-06, No Iterations 3
smoothSolver:  Solving for Uy, Initial residual = 0.00532667, Final residual = 8.80122e-06, No Iterations 3
DICPCG:  Solving for p, Initial residual = 0.0011896, Final residual = 5.88615e-05, No Iterations 360
time step continuity errors : sum local = 2.66502e-11, global = -1.06983e-22, cumulative = -1.2436e-22
DICPCG:  Solving for p, Initial residual = 0.000774418, Final residual = 9.81582e-07, No Iterations 792
time step continuity errors : sum local = 4.21102e-13, global = -3.57487e-23, cumulative = -1.60109e-22
ExecutionTime = 278.36 s  ClockTime = 278 s

Time = 0.00049

Courant Number mean: 0.000975206 max: 0.0469721
smoothSolver:  Solving for Ux, Initial residual = 0.00483623, Final residual = 8.03317e-06, No Iterations 3
smoothSolver:  Solving for Uy, Initial residual = 0.00521338, Final residual = 8.61431e-06, No Iterations 3
DICPCG:  Solving for p, Initial residual = 0.00116117, Final residual = 5.77579e-05, No Iterations 357
time step continuity errors : sum local = 2.60918e-11, global = -5.96528e-23, cumulative = -2.19762e-22
DICPCG:  Solving for p, Initial residual = 0.00074588, Final residual = 9.89997e-07, No Iterations 790
time step continuity errors : sum local = 4.25008e-13, global = -2.41005e-22, cumulative = -4.60767e-22
ExecutionTime = 282.85 s  ClockTime = 283 s

Time = 0.0005

Courant Number mean: 0.000984829 max: 0.0470155
smoothSolver:  Solving for Ux, Initial residual = 0.00473749, Final residual = 7.87371e-06, No Iterations 3
smoothSolver:  Solving for Uy, Initial residual = 0.00510475, Final residual = 8.43506e-06, No Iterations 3
DICPCG:  Solving for p, Initial residual = 0.00113499, Final residual = 5.60692e-05, No Iterations 357
time step continuity errors : sum local = 2.5385e-11, global = 1.07944e-22, cumulative = -3.52823e-22
DICPCG:  Solving for p, Initial residual = 0.00074356, Final residual = 9.83668e-07, No Iterations 789
time step continuity errors : sum local = 4.22561e-13, global = -2.5844e-22, cumulative = -6.11263e-22
ExecutionTime = 287.35 s  ClockTime = 287 s

Time = 0.00051

Courant Number mean: 0.000994333 max: 0.0470576
smoothSolver:  Solving for Ux, Initial residual = 0.00464263, Final residual = 7.72054e-06, No Iterations 3
smoothSolver:  Solving for Uy, Initial residual = 0.00500056, Final residual = 8.26314e-06, No Iterations 3
DICPCG:  Solving for p, Initial residual = 0.00110874, Final residual = 5.49058e-05, No Iterations 356
time step continuity errors : sum local = 2.48317e-11, global = -3.79774e-22, cumulative = -9.91037e-22
DICPCG:  Solving for p, Initial residual = 0.000725418, Final residual = 9.68025e-07, No Iterations 788
time step continuity errors : sum local = 4.16096e-13, global = 1.35593e-22, cumulative = -8.55444e-22
ExecutionTime = 291.84 s  ClockTime = 292 s

Time = 0.00052

Courant Number mean: 0.00100373 max: 0.0470984
smoothSolver:  Solving for Ux, Initial residual = 0.00455145, Final residual = 7.57325e-06, No Iterations 3
smoothSolver:  Solving for Uy, Initial residual = 0.0049005, Final residual = 8.09803e-06, No Iterations 3
DICPCG:  Solving for p, Initial residual = 0.0010847, Final residual = 5.41045e-05, No Iterations 354
time step continuity errors : sum local = 2.4488e-11, global = 1.2364e-22, cumulative = -7.31805e-22
DICPCG:  Solving for p, Initial residual = 0.000705333, Final residual = 9.93599e-07, No Iterations 786
time step continuity errors : sum local = 4.27321e-13, global = -2.9225e-22, cumulative = -1.02405e-21
ExecutionTime = 296.31 s  ClockTime = 296 s

Time = 0.00053

Courant Number mean: 0.00101304 max: 0.0471379
smoothSolver:  Solving for Ux, Initial residual = 0.00446388, Final residual = 7.43131e-06, No Iterations 3
smoothSolver:  Solving for Uy, Initial residual = 0.00480437, Final residual = 7.93938e-06, No Iterations 3
DICPCG:  Solving for p, Initial residual = 0.00106204, Final residual = 5.24155e-05, No Iterations 354
time step continuity errors : sum local = 2.37257e-11, global = -2.12839e-22, cumulative = -1.23689e-21
DICPCG:  Solving for p, Initial residual = 0.000701445, Final residual = 9.94062e-07, No Iterations 784
time step continuity errors : sum local = 4.27761e-13, global = 1.59374e-22, cumulative = -1.07752e-21
ExecutionTime = 300.78 s  ClockTime = 301 s

Time = 0.00054

Courant Number mean: 0.00102226 max: 0.0471764
smoothSolver:  Solving for Ux, Initial residual = 0.00437963, Final residual = 7.2944e-06, No Iterations 3
smoothSolver:  Solving for Uy, Initial residual = 0.0047119, Final residual = 7.78679e-06, No Iterations 3
DICPCG:  Solving for p, Initial residual = 0.00103883, Final residual = 5.17148e-05, No Iterations 353
time step continuity errors : sum local = 2.34123e-11, global = 8.83137e-23, cumulative = -9.89206e-22
DICPCG:  Solving for p, Initial residual = 0.000685531, Final residual = 9.56325e-07, No Iterations 784
time step continuity errors : sum local = 4.11737e-13, global = 4.56106e-22, cumulative = -5.33099e-22
ExecutionTime = 305.24 s  ClockTime = 305 s

Time = 0.00055

Courant Number mean: 0.00103137 max: 0.0472137
smoothSolver:  Solving for Ux, Initial residual = 0.00429848, Final residual = 7.16228e-06, No Iterations 3
smoothSolver:  Solving for Uy, Initial residual = 0.00462292, Final residual = 7.63994e-06, No Iterations 3
DICPCG:  Solving for p, Initial residual = 0.00101748, Final residual = 5.03771e-05, No Iterations 352
time step continuity errors : sum local = 2.28115e-11, global = 4.15273e-23, cumulative = -4.91572e-22
DICPCG:  Solving for p, Initial residual = 0.000672306, Final residual = 9.76968e-07, No Iterations 783
time step continuity errors : sum local = 4.20802e-13, global = 1.62819e-22, cumulative = -3.28753e-22
ExecutionTime = 309.7 s  ClockTime = 310 s

Time = 0.00056

Courant Number mean: 0.0010404 max: 0.04725
smoothSolver:  Solving for Ux, Initial residual = 0.00422025, Final residual = 7.03501e-06, No Iterations 3
smoothSolver:  Solving for Uy, Initial residual = 0.00453722, Final residual = 7.49849e-06, No Iterations 3
DICPCG:  Solving for p, Initial residual = 0.000996678, Final residual = 4.96632e-05, No Iterations 351
time step continuity errors : sum local = 2.24894e-11, global = 4.63953e-23, cumulative = -2.82357e-22
DICPCG:  Solving for p, Initial residual = 0.000661219, Final residual = 9.50836e-07, No Iterations 783
time step continuity errors : sum local = 4.09743e-13, global = -1.42871e-22, cumulative = -4.25229e-22
ExecutionTime = 314.15 s  ClockTime = 314 s

Time = 0.00057

Courant Number mean: 0.00104933 max: 0.0472852
smoothSolver:  Solving for Ux, Initial residual = 0.00414479, Final residual = 6.91231e-06, No Iterations 3
smoothSolver:  Solving for Uy, Initial residual = 0.00445463, Final residual = 7.36217e-06, No Iterations 3
DICPCG:  Solving for p, Initial residual = 0.000976909, Final residual = 4.82467e-05, No Iterations 351
time step continuity errors : sum local = 2.18575e-11, global = -1.7877e-23, cumulative = -4.43106e-22
DICPCG:  Solving for p, Initial residual = 0.000652274, Final residual = 9.94175e-07, No Iterations 782
time step continuity errors : sum local = 4.28573e-13, global = 1.20228e-22, cumulative = -3.22878e-22
ExecutionTime = 318.59 s  ClockTime = 319 s

Time = 0.00058

Courant Number mean: 0.00105816 max: 0.0473196
smoothSolver:  Solving for Ux, Initial residual = 0.00407193, Final residual = 6.79387e-06, No Iterations 3
smoothSolver:  Solving for Uy, Initial residual = 0.00437497, Final residual = 7.23069e-06, No Iterations 3
DICPCG:  Solving for p, Initial residual = 0.000957416, Final residual = 4.68964e-05, No Iterations 351
time step continuity errors : sum local = 2.12584e-11, global = 1.26019e-22, cumulative = -1.96858e-22
DICPCG:  Solving for p, Initial residual = 0.000640636, Final residual = 9.67553e-07, No Iterations 782
time step continuity errors : sum local = 4.17285e-13, global = 2.02958e-22, cumulative = 6.09948e-24
ExecutionTime = 323.04 s  ClockTime = 323 s

Time = 0.00059

Courant Number mean: 0.0010669 max: 0.047353
smoothSolver:  Solving for Ux, Initial residual = 0.00400153, Final residual = 6.67945e-06, No Iterations 3
smoothSolver:  Solving for Uy, Initial residual = 0.0042981, Final residual = 7.10381e-06, No Iterations 3
DICPCG:  Solving for p, Initial residual = 0.000942953, Final residual = 4.6894e-05, No Iterations 349
time step continuity errors : sum local = 2.12418e-11, global = 5.8787e-22, cumulative = 5.9397e-22
DICPCG:  Solving for p, Initial residual = 0.000622412, Final residual = 9.95038e-07, No Iterations 781
time step continuity errors : sum local = 4.2929e-13, global = -3.83923e-23, cumulative = 5.55577e-22
ExecutionTime = 327.47 s  ClockTime = 328 s

Time = 0.0006

Courant Number mean: 0.00107556 max: 0.0473855
smoothSolver:  Solving for Ux, Initial residual = 0.00393357, Final residual = 6.56881e-06, No Iterations 3
smoothSolver:  Solving for Uy, Initial residual = 0.00422388, Final residual = 6.98128e-06, No Iterations 3
DICPCG:  Solving for p, Initial residual = 0.000971552, Final residual = 4.84699e-05, No Iterations 347
time step continuity errors : sum local = 2.19092e-11, global = -3.85132e-22, cumulative = 1.70445e-22
DICPCG:  Solving for p, Initial residual = 0.000619435, Final residual = 9.55554e-07, No Iterations 781
time step continuity errors : sum local = 4.12441e-13, global = 1.90695e-22, cumulative = 3.61141e-22
ExecutionTime = 331.9 s  ClockTime = 332 s

Time = 0.00061

Courant Number mean: 0.00108412 max: 0.0474172
smoothSolver:  Solving for Ux, Initial residual = 0.00386799, Final residual = 6.46176e-06, No Iterations 3
smoothSolver:  Solving for Uy, Initial residual = 0.00415216, Final residual = 6.86289e-06, No Iterations 3
DICPCG:  Solving for p, Initial residual = 0.000964015, Final residual = 4.71586e-05, No Iterations 347
time step continuity errors : sum local = 2.13272e-11, global = -5.23943e-22, cumulative = -1.62802e-22
DICPCG:  Solving for p, Initial residual = 0.000619878, Final residual = 9.92388e-07, No Iterations 780
time step continuity errors : sum local = 4.28472e-13, global = 1.13922e-22, cumulative = -4.88805e-23
ExecutionTime = 336.32 s  ClockTime = 336 s

Time = 0.00062

Courant Number mean: 0.0010926 max: 0.0474481
smoothSolver:  Solving for Ux, Initial residual = 0.00380462, Final residual = 6.35811e-06, No Iterations 3
smoothSolver:  Solving for Uy, Initial residual = 0.00408282, Final residual = 6.74843e-06, No Iterations 3
DICPCG:  Solving for p, Initial residual = 0.000890408, Final residual = 4.33948e-05, No Iterations 349
time step continuity errors : sum local = 1.96837e-11, global = 2.92565e-22, cumulative = 2.43684e-22
DICPCG:  Solving for p, Initial residual = 0.000592051, Final residual = 9.63985e-07, No Iterations 780
time step continuity errors : sum local = 4.16373e-13, global = -1.09652e-22, cumulative = 1.34032e-22
ExecutionTime = 340.76 s  ClockTime = 341 s

Time = 0.00063

Courant Number mean: 0.00110102 max: 0.0474782
smoothSolver:  Solving for Ux, Initial residual = 0.00374326, Final residual = 6.25764e-06, No Iterations 3
smoothSolver:  Solving for Uy, Initial residual = 0.00401575, Final residual = 6.63771e-06, No Iterations 3
DICPCG:  Solving for p, Initial residual = 0.000872276, Final residual = 4.23078e-05, No Iterations 349
time step continuity errors : sum local = 1.91977e-11, global = -1.39824e-22, cumulative = -5.79151e-24
DICPCG:  Solving for p, Initial residual = 0.000590641, Final residual = 9.89197e-07, No Iterations 778
time step continuity errors : sum local = 4.274e-13, global = 2.92228e-22, cumulative = 2.86436e-22
ExecutionTime = 345.17 s  ClockTime = 345 s

Time = 0.00064

Courant Number mean: 0.00110936 max: 0.0475076
smoothSolver:  Solving for Ux, Initial residual = 0.0036838, Final residual = 6.16035e-06, No Iterations 3
smoothSolver:  Solving for Uy, Initial residual = 0.00395084, Final residual = 6.53054e-06, No Iterations 3
DICPCG:  Solving for p, Initial residual = 0.000856871, Final residual = 4.25971e-05, No Iterations 348
time step continuity errors : sum local = 1.93098e-11, global = 3.01441e-22, cumulative = 5.87877e-22
DICPCG:  Solving for p, Initial residual = 0.000579684, Final residual = 9.74728e-07, No Iterations 777
time step continuity errors : sum local = 4.21307e-13, global = 9.21636e-23, cumulative = 6.80041e-22
ExecutionTime = 349.59 s  ClockTime = 350 s

Time = 0.00065

Courant Number mean: 0.00111763 max: 0.0475363
smoothSolver:  Solving for Ux, Initial residual = 0.00362613, Final residual = 6.06606e-06, No Iterations 3
smoothSolver:  Solving for Uy, Initial residual = 0.00388798, Final residual = 6.42676e-06, No Iterations 3
DICPCG:  Solving for p, Initial residual = 0.000842925, Final residual = 4.15338e-05, No Iterations 348
time step continuity errors : sum local = 1.88361e-11, global = -1.02864e-22, cumulative = 5.77177e-22
DICPCG:  Solving for p, Initial residual = 0.000573502, Final residual = 9.90792e-07, No Iterations 776
time step continuity errors : sum local = 4.28405e-13, global = -2.69717e-22, cumulative = 3.0746e-22
ExecutionTime = 353.99 s  ClockTime = 354 s

Time = 0.00066

Courant Number mean: 0.00112583 max: 0.0475644
smoothSolver:  Solving for Ux, Initial residual = 0.00357019, Final residual = 5.97463e-06, No Iterations 3
smoothSolver:  Solving for Uy, Initial residual = 0.00382708, Final residual = 6.32621e-06, No Iterations 3
DICPCG:  Solving for p, Initial residual = 0.000828628, Final residual = 4.05312e-05, No Iterations 348
time step continuity errors : sum local = 1.83888e-11, global = 2.56541e-22, cumulative = 5.64001e-22
DICPCG:  Solving for p, Initial residual = 0.000564674, Final residual = 9.67262e-07, No Iterations 776
time step continuity errors : sum local = 4.18385e-13, global = -2.9451e-22, cumulative = 2.69491e-22
ExecutionTime = 358.4 s  ClockTime = 358 s

Time = 0.00067

Courant Number mean: 0.00113396 max: 0.0475917
smoothSolver:  Solving for Ux, Initial residual = 0.00351589, Final residual = 5.88592e-06, No Iterations 3
smoothSolver:  Solving for Uy, Initial residual = 0.00376805, Final residual = 6.22875e-06, No Iterations 3
DICPCG:  Solving for p, Initial residual = 0.000814886, Final residual = 3.95548e-05, No Iterations 348
time step continuity errors : sum local = 1.79533e-11, global = -5.5856e-22, cumulative = -2.8907e-22
DICPCG:  Solving for p, Initial residual = 0.000556163, Final residual = 9.98302e-07, No Iterations 775
time step continuity errors : sum local = 4.31954e-13, global = 2.27879e-22, cumulative = -6.11903e-23
ExecutionTime = 362.8 s  ClockTime = 363 s

Time = 0.00068

Courant Number mean: 0.00114201 max: 0.0476185
smoothSolver:  Solving for Ux, Initial residual = 0.00346325, Final residual = 5.79977e-06, No Iterations 3
smoothSolver:  Solving for Uy, Initial residual = 0.0037108, Final residual = 6.13423e-06, No Iterations 3
DICPCG:  Solving for p, Initial residual = 0.00080162, Final residual = 3.86206e-05, No Iterations 348
time step continuity errors : sum local = 1.75363e-11, global = -1.9118e-23, cumulative = -8.03083e-23
DICPCG:  Solving for p, Initial residual = 0.000547891, Final residual = 9.76276e-07, No Iterations 775
time step continuity errors : sum local = 4.22571e-13, global = 1.61704e-22, cumulative = 8.1396e-23
ExecutionTime = 367.2 s  ClockTime = 367 s

Time = 0.00069

Courant Number mean: 0.00115 max: 0.0476446
smoothSolver:  Solving for Ux, Initial residual = 0.00341223, Final residual = 5.71607e-06, No Iterations 3
smoothSolver:  Solving for Uy, Initial residual = 0.00365526, Final residual = 6.04252e-06, No Iterations 3
DICPCG:  Solving for p, Initial residual = 0.000788616, Final residual = 3.92273e-05, No Iterations 347
time step continuity errors : sum local = 1.77874e-11, global = -9.49845e-23, cumulative = -1.35885e-23
DICPCG:  Solving for p, Initial residual = 0.000539187, Final residual = 9.53214e-07, No Iterations 775
time step continuity errors : sum local = 4.12732e-13, global = -2.87717e-22, cumulative = -3.01305e-22
ExecutionTime = 371.6 s  ClockTime = 372 s

Time = 0.0007

Courant Number mean: 0.00115791 max: 0.0476701
smoothSolver:  Solving for Ux, Initial residual = 0.00336272, Final residual = 5.63472e-06, No Iterations 3
smoothSolver:  Solving for Uy, Initial residual = 0.00360135, Final residual = 5.95349e-06, No Iterations 3
DICPCG:  Solving for p, Initial residual = 0.000777074, Final residual = 3.83406e-05, No Iterations 347
time step continuity errors : sum local = 1.73921e-11, global = 2.11684e-22, cumulative = -8.96214e-23
DICPCG:  Solving for p, Initial residual = 0.000534357, Final residual = 9.3298e-07, No Iterations 775
time step continuity errors : sum local = 4.04107e-13, global = -7.94987e-23, cumulative = -1.6912e-22
ExecutionTime = 375.99 s  ClockTime = 376 s

Time = 0.00071

Courant Number mean: 0.00116576 max: 0.0476951
smoothSolver:  Solving for Ux, Initial residual = 0.00331463, Final residual = 5.5556e-06, No Iterations 3
smoothSolver:  Solving for Uy, Initial residual = 0.00354899, Final residual = 5.86704e-06, No Iterations 3
DICPCG:  Solving for p, Initial residual = 0.000764788, Final residual = 3.74737e-05, No Iterations 347
time step continuity errors : sum local = 1.70049e-11, global = 2.64575e-22, cumulative = 9.54552e-23
DICPCG:  Solving for p, Initial residual = 0.000526684, Final residual = 9.8733e-07, No Iterations 774
time step continuity errors : sum local = 4.27774e-13, global = -4.38606e-23, cumulative = 5.15945e-23
ExecutionTime = 380.39 s  ClockTime = 380 s

Time = 0.00072

Courant Number mean: 0.00117354 max: 0.0477196
smoothSolver:  Solving for Ux, Initial residual = 0.00326789, Final residual = 5.4787e-06, No Iterations 3
smoothSolver:  Solving for Uy, Initial residual = 0.00349813, Final residual = 5.78305e-06, No Iterations 3
DICPCG:  Solving for p, Initial residual = 0.000753025, Final residual = 3.72248e-05, No Iterations 346
time step continuity errors : sum local = 1.68874e-11, global = -1.05806e-22, cumulative = -5.42112e-23
DICPCG:  Solving for p, Initial residual = 0.000518156, Final residual = 9.78678e-07, No Iterations 774
time step continuity errors : sum local = 4.24155e-13, global = -5.44931e-23, cumulative = -1.08704e-22
ExecutionTime = 384.78 s  ClockTime = 385 s

Time = 0.00073

Courant Number mean: 0.00118125 max: 0.0477435
smoothSolver:  Solving for Ux, Initial residual = 0.00322244, Final residual = 5.40401e-06, No Iterations 3
smoothSolver:  Solving for Uy, Initial residual = 0.0034487, Final residual = 5.70142e-06, No Iterations 3
DICPCG:  Solving for p, Initial residual = 0.000742076, Final residual = 3.67365e-05, No Iterations 346
time step continuity errors : sum local = 1.66653e-11, global = 5.57779e-23, cumulative = -5.29264e-23
DICPCG:  Solving for p, Initial residual = 0.000513374, Final residual = 9.57282e-07, No Iterations 774
time step continuity errors : sum local = 4.15014e-13, global = -2.01262e-22, cumulative = -2.54188e-22
ExecutionTime = 389.18 s  ClockTime = 389 s

Time = 0.00074

Courant Number mean: 0.0011889 max: 0.047767
smoothSolver:  Solving for Ux, Initial residual = 0.00317823, Final residual = 5.3314e-06, No Iterations 3
smoothSolver:  Solving for Uy, Initial residual = 0.00340063, Final residual = 5.62205e-06, No Iterations 3
DICPCG:  Solving for p, Initial residual = 0.000731578, Final residual = 3.59339e-05, No Iterations 346
time step continuity errors : sum local = 1.63069e-11, global = 5.42286e-23, cumulative = -1.99959e-22
DICPCG:  Solving for p, Initial residual = 0.00050642, Final residual = 9.37649e-07, No Iterations 774
time step continuity errors : sum local = 4.06628e-13, global = 4.46729e-22, cumulative = 2.46769e-22
ExecutionTime = 393.62 s  ClockTime = 394 s

Time = 0.00075

Courant Number mean: 0.0011965 max: 0.0477899
smoothSolver:  Solving for Ux, Initial residual = 0.00313516, Final residual = 5.26071e-06, No Iterations 3
smoothSolver:  Solving for Uy, Initial residual = 0.00335388, Final residual = 5.54485e-06, No Iterations 3
DICPCG:  Solving for p, Initial residual = 0.000720742, Final residual = 3.58256e-05, No Iterations 345
time step continuity errors : sum local = 1.62512e-11, global = 2.59801e-22, cumulative = 5.06571e-22
DICPCG:  Solving for p, Initial residual = 0.000498496, Final residual = 9.79291e-07, No Iterations 773
time step continuity errors : sum local = 4.24807e-13, global = 3.00643e-22, cumulative = 8.07214e-22
ExecutionTime = 398 s  ClockTime = 398 s

Time = 0.00076

Courant Number mean: 0.00120405 max: 0.0478124
smoothSolver:  Solving for Ux, Initial residual = 0.00309317, Final residual = 5.19179e-06, No Iterations 3
smoothSolver:  Solving for Uy, Initial residual = 0.0033084, Final residual = 5.46973e-06, No Iterations 3
DICPCG:  Solving for p, Initial residual = 0.000710545, Final residual = 3.50611e-05, No Iterations 345
time step continuity errors : sum local = 1.59102e-11, global = -1.71658e-22, cumulative = 6.35556e-22
DICPCG:  Solving for p, Initial residual = 0.000494525, Final residual = 9.59418e-07, No Iterations 773
time step continuity errors : sum local = 4.1631e-13, global = 1.0401e-22, cumulative = 7.39566e-22
ExecutionTime = 402.39 s  ClockTime = 402 s

Time = 0.00077

Courant Number mean: 0.00121154 max: 0.0478344
smoothSolver:  Solving for Ux, Initial residual = 0.00305235, Final residual = 5.12462e-06, No Iterations 3
smoothSolver:  Solving for Uy, Initial residual = 0.00326412, Final residual = 5.3966e-06, No Iterations 3
DICPCG:  Solving for p, Initial residual = 0.000700428, Final residual = 3.42918e-05, No Iterations 345
time step continuity errors : sum local = 1.55667e-11, global = 7.33041e-22, cumulative = 1.47261e-21
DICPCG:  Solving for p, Initial residual = 0.000488212, Final residual = 9.40864e-07, No Iterations 773
time step continuity errors : sum local = 4.08377e-13, global = 7.64452e-22, cumulative = 2.23706e-21
ExecutionTime = 406.78 s  ClockTime = 407 s

Time = 0.00078

Courant Number mean: 0.00121898 max: 0.047856
smoothSolver:  Solving for Ux, Initial residual = 0.00301261, Final residual = 5.05911e-06, No Iterations 3
smoothSolver:  Solving for Uy, Initial residual = 0.003221, Final residual = 5.3254e-06, No Iterations 3
DICPCG:  Solving for p, Initial residual = 0.000690687, Final residual = 3.36239e-05, No Iterations 345
time step continuity errors : sum local = 1.52679e-11, global = 8.46348e-23, cumulative = 2.32169e-21
DICPCG:  Solving for p, Initial residual = 0.000482035, Final residual = 9.90471e-07, No Iterations 772
time step continuity errors : sum local = 4.30022e-13, global = 6.55143e-22, cumulative = 2.97684e-21
ExecutionTime = 411.16 s  ClockTime = 411 s

Time = 0.00079

Courant Number mean: 0.00122636 max: 0.0478772
smoothSolver:  Solving for Ux, Initial residual = 0.00297389, Final residual = 4.99522e-06, No Iterations 3
smoothSolver:  Solving for Uy, Initial residual = 0.00317901, Final residual = 5.25603e-06, No Iterations 3
DICPCG:  Solving for p, Initial residual = 0.000681297, Final residual = 3.29409e-05, No Iterations 345
time step continuity errors : sum local = 1.49624e-11, global = 3.14173e-23, cumulative = 3.00825e-21
DICPCG:  Solving for p, Initial residual = 0.000476045, Final residual = 9.72391e-07, No Iterations 772
time step continuity errors : sum local = 4.22289e-13, global = 3.84842e-22, cumulative = 3.3931e-21
ExecutionTime = 415.54 s  ClockTime = 416 s

Time = 0.0008

Courant Number mean: 0.00123369 max: 0.0478979
smoothSolver:  Solving for Ux, Initial residual = 0.00293616, Final residual = 4.93288e-06, No Iterations 3
smoothSolver:  Solving for Uy, Initial residual = 0.00313808, Final residual = 5.18844e-06, No Iterations 3
DICPCG:  Solving for p, Initial residual = 0.000672007, Final residual = 3.34232e-05, No Iterations 344
time step continuity errors : sum local = 1.51644e-11, global = -1.09011e-22, cumulative = 3.28409e-21
DICPCG:  Solving for p, Initial residual = 0.000469107, Final residual = 9.51201e-07, No Iterations 772
time step continuity errors : sum local = 4.13199e-13, global = -5.31939e-22, cumulative = 2.75215e-21
ExecutionTime = 419.92 s  ClockTime = 420 s

Time = 0.00081

Courant Number mean: 0.00124096 max: 0.0479183
smoothSolver:  Solving for Ux, Initial residual = 0.00289935, Final residual = 4.87207e-06, No Iterations 3
smoothSolver:  Solving for Uy, Initial residual = 0.00309819, Final residual = 5.12256e-06, No Iterations 3
DICPCG:  Solving for p, Initial residual = 0.00066345, Final residual = 3.27572e-05, No Iterations 344
time step continuity errors : sum local = 1.48671e-11, global = 3.58816e-23, cumulative = 2.78803e-21
DICPCG:  Solving for p, Initial residual = 0.000465787, Final residual = 9.34247e-07, No Iterations 772
time step continuity errors : sum local = 4.05943e-13, global = -5.29095e-24, cumulative = 2.78274e-21
ExecutionTime = 424.3 s  ClockTime = 424 s

Time = 0.00082

Courant Number mean: 0.00124818 max: 0.0479382
smoothSolver:  Solving for Ux, Initial residual = 0.00286345, Final residual = 4.81281e-06, No Iterations 3
smoothSolver:  Solving for Uy, Initial residual = 0.0030593, Final residual = 5.05832e-06, No Iterations 3
DICPCG:  Solving for p, Initial residual = 0.000654594, Final residual = 3.21002e-05, No Iterations 344
time step continuity errors : sum local = 1.45733e-11, global = -5.22281e-22, cumulative = 2.26046e-21
DICPCG:  Solving for p, Initial residual = 0.000460173, Final residual = 9.83561e-07, No Iterations 771
time step continuity errors : sum local = 4.27482e-13, global = -2.39163e-22, cumulative = 2.02129e-21
ExecutionTime = 428.68 s  ClockTime = 429 s

Time = 0.00083

Courant Number mean: 0.00125534 max: 0.0479578
smoothSolver:  Solving for Ux, Initial residual = 0.00282841, Final residual = 4.75503e-06, No Iterations 3
smoothSolver:  Solving for Uy, Initial residual = 0.00302136, Final residual = 4.99567e-06, No Iterations 3
DICPCG:  Solving for p, Initial residual = 0.000646158, Final residual = 3.22262e-05, No Iterations 343
time step continuity errors : sum local = 1.46216e-11, global = 3.84312e-22, cumulative = 2.40561e-21
DICPCG:  Solving for p, Initial residual = 0.000454084, Final residual = 9.66496e-07, No Iterations 771
time step continuity errors : sum local = 4.20172e-13, global = -3.35456e-22, cumulative = 2.07015e-21
ExecutionTime = 433.05 s  ClockTime = 433 s

Time = 0.00084

Courant Number mean: 0.00126245 max: 0.0479771
smoothSolver:  Solving for Ux, Initial residual = 0.00279419, Final residual = 4.69865e-06, No Iterations 3
smoothSolver:  Solving for Uy, Initial residual = 0.00298435, Final residual = 4.93453e-06, No Iterations 3
DICPCG:  Solving for p, Initial residual = 0.000638343, Final residual = 3.19158e-05, No Iterations 342
time step continuity errors : sum local = 1.44808e-11, global = -2.43559e-22, cumulative = 1.82659e-21
DICPCG:  Solving for p, Initial residual = 0.000449126, Final residual = 9.86382e-07, No Iterations 770
time step continuity errors : sum local = 4.28931e-13, global = 1.93126e-23, cumulative = 1.8459e-21
ExecutionTime = 437.42 s  ClockTime = 437 s

Time = 0.00085

Courant Number mean: 0.00126951 max: 0.047996
smoothSolver:  Solving for Ux, Initial residual = 0.00276078, Final residual = 4.64359e-06, No Iterations 3
smoothSolver:  Solving for Uy, Initial residual = 0.00294823, Final residual = 4.87487e-06, No Iterations 3
DICPCG:  Solving for p, Initial residual = 0.000631353, Final residual = 3.1507e-05, No Iterations 342
time step continuity errors : sum local = 1.42958e-11, global = -5.51798e-22, cumulative = 1.2941e-21
DICPCG:  Solving for p, Initial residual = 0.000446243, Final residual = 9.68201e-07, No Iterations 770
time step continuity errors : sum local = 4.21129e-13, global = -4.0984e-22, cumulative = 8.84265e-22
ExecutionTime = 441.78 s  ClockTime = 442 s

Time = 0.00086

Courant Number mean: 0.00127651 max: 0.0480145
smoothSolver:  Solving for Ux, Initial residual = 0.00272821, Final residual = 4.58981e-06, No Iterations 3
smoothSolver:  Solving for Uy, Initial residual = 0.00291297, Final residual = 4.81662e-06, No Iterations 3
DICPCG:  Solving for p, Initial residual = 0.00062343, Final residual = 3.08904e-05, No Iterations 342
time step continuity errors : sum local = 1.40203e-11, global = 1.55363e-23, cumulative = 8.99801e-22
DICPCG:  Solving for p, Initial residual = 0.000441182, Final residual = 9.50826e-07, No Iterations 770
time step continuity errors : sum local = 4.13671e-13, global = 6.68341e-23, cumulative = 9.66635e-22
ExecutionTime = 446.16 s  ClockTime = 446 s

Time = 0.00087

Courant Number mean: 0.00128347 max: 0.0480328
smoothSolver:  Solving for Ux, Initial residual = 0.00269642, Final residual = 4.53724e-06, No Iterations 3
smoothSolver:  Solving for Uy, Initial residual = 0.00287854, Final residual = 4.75974e-06, No Iterations 3
DICPCG:  Solving for p, Initial residual = 0.000615158, Final residual = 3.03442e-05, No Iterations 342
time step continuity errors : sum local = 1.37757e-11, global = 2.01741e-22, cumulative = 1.16838e-21
DICPCG:  Solving for p, Initial residual = 0.000436299, Final residual = 9.85544e-07, No Iterations 769
time step continuity errors : sum local = 4.28883e-13, global = 4.2654e-23, cumulative = 1.21103e-21
ExecutionTime = 450.51 s  ClockTime = 451 s

Time = 0.00088

Courant Number mean: 0.0012904 max: 0.0480507
smoothSolver:  Solving for Ux, Initial residual = 0.00266535, Final residual = 4.48581e-06, No Iterations 3
smoothSolver:  Solving for Uy, Initial residual = 0.0028449, Final residual = 4.70418e-06, No Iterations 3
DICPCG:  Solving for p, Initial residual = 0.000607769, Final residual = 2.97788e-05, No Iterations 342
time step continuity errors : sum local = 1.35228e-11, global = -1.41469e-22, cumulative = 1.06956e-21
DICPCG:  Solving for p, Initial residual = 0.000431497, Final residual = 9.70704e-07, No Iterations 769
time step continuity errors : sum local = 4.22522e-13, global = 1.34201e-22, cumulative = 1.20376e-21
ExecutionTime = 454.88 s  ClockTime = 455 s

Time = 0.00089

Courant Number mean: 0.00129728 max: 0.0480682
smoothSolver:  Solving for Ux, Initial residual = 0.00263497, Final residual = 4.43547e-06, No Iterations 3
smoothSolver:  Solving for Uy, Initial residual = 0.00281204, Final residual = 4.6499e-06, No Iterations 3
DICPCG:  Solving for p, Initial residual = 0.000600432, Final residual = 2.92206e-05, No Iterations 342
time step continuity errors : sum local = 1.32732e-11, global = -3.01995e-22, cumulative = 9.01767e-22
DICPCG:  Solving for p, Initial residual = 0.000426824, Final residual = 9.52474e-07, No Iterations 769
time step continuity errors : sum local = 4.14681e-13, global = -4.44739e-23, cumulative = 8.57293e-22
ExecutionTime = 459.24 s  ClockTime = 459 s

Time = 0.0009

Courant Number mean: 0.00130412 max: 0.0480855
smoothSolver:  Solving for Ux, Initial residual = 0.00260525, Final residual = 4.3862e-06, No Iterations 3
smoothSolver:  Solving for Uy, Initial residual = 0.00277992, Final residual = 4.59684e-06, No Iterations 3
DICPCG:  Solving for p, Initial residual = 0.000593313, Final residual = 2.92342e-05, No Iterations 341
time step continuity errors : sum local = 1.32736e-11, global = -5.92231e-22, cumulative = 2.65062e-22
DICPCG:  Solving for p, Initial residual = 0.00042134, Final residual = 9.82308e-07, No Iterations 768
time step continuity errors : sum local = 4.27771e-13, global = 1.58513e-23, cumulative = 2.80913e-22
ExecutionTime = 463.6 s  ClockTime = 464 s

Time = 0.00091

Courant Number mean: 0.00131091 max: 0.0481025
smoothSolver:  Solving for Ux, Initial residual = 0.00257619, Final residual = 4.33801e-06, No Iterations 3
smoothSolver:  Solving for Uy, Initial residual = 0.00274853, Final residual = 4.54498e-06, No Iterations 3
DICPCG:  Solving for p, Initial residual = 0.000586757, Final residual = 2.89711e-05, No Iterations 341
time step continuity errors : sum local = 1.31531e-11, global = -5.82468e-22, cumulative = -3.01556e-22
DICPCG:  Solving for p, Initial residual = 0.000418786, Final residual = 9.61817e-07, No Iterations 768
time step continuity errors : sum local = 4.18941e-13, global = -8.16983e-23, cumulative = -3.83254e-22
ExecutionTime = 467.96 s  ClockTime = 468 s

Time = 0.00092

Courant Number mean: 0.00131767 max: 0.0481192
smoothSolver:  Solving for Ux, Initial residual = 0.00254774, Final residual = 4.29093e-06, No Iterations 3
smoothSolver:  Solving for Uy, Initial residual = 0.00271783, Final residual = 4.49426e-06, No Iterations 3
DICPCG:  Solving for p, Initial residual = 0.000579878, Final residual = 2.84588e-05, No Iterations 341
time step continuity errors : sum local = 1.29236e-11, global = -2.42264e-22, cumulative = -6.25518e-22
DICPCG:  Solving for p, Initial residual = 0.000414397, Final residual = 9.96384e-07, No Iterations 767
time step continuity errors : sum local = 4.3409e-13, global = -3.27866e-22, cumulative = -9.53384e-22
ExecutionTime = 472.3 s  ClockTime = 472 s

Time = 0.00093

Courant Number mean: 0.00132437 max: 0.0481357
smoothSolver:  Solving for Ux, Initial residual = 0.00251991, Final residual = 4.24487e-06, No Iterations 3
smoothSolver:  Solving for Uy, Initial residual = 0.0026878, Final residual = 4.44466e-06, No Iterations 3
DICPCG:  Solving for p, Initial residual = 0.000573435, Final residual = 2.86057e-05, No Iterations 340
time step continuity errors : sum local = 1.29824e-11, global = -3.0522e-22, cumulative = -1.2586e-21
DICPCG:  Solving for p, Initial residual = 0.000408936, Final residual = 9.73354e-07, No Iterations 767
time step continuity errors : sum local = 4.24149e-13, global = -5.19973e-22, cumulative = -1.77858e-21
ExecutionTime = 476.65 s  ClockTime = 477 s

Time = 0.00094

Courant Number mean: 0.00133104 max: 0.0481518
smoothSolver:  Solving for Ux, Initial residual = 0.00249266, Final residual = 4.19981e-06, No Iterations 3
smoothSolver:  Solving for Uy, Initial residual = 0.00265843, Final residual = 4.39614e-06, No Iterations 3
DICPCG:  Solving for p, Initial residual = 0.000567346, Final residual = 2.81109e-05, No Iterations 340
time step continuity errors : sum local = 1.27611e-11, global = 2.37947e-22, cumulative = -1.54063e-21
DICPCG:  Solving for p, Initial residual = 0.000406783, Final residual = 9.58528e-07, No Iterations 767
time step continuity errors : sum local = 4.17775e-13, global = 3.08221e-22, cumulative = -1.23241e-21
ExecutionTime = 480.99 s  ClockTime = 481 s

Time = 0.00095

Courant Number mean: 0.00133766 max: 0.0481677
smoothSolver:  Solving for Ux, Initial residual = 0.00246598, Final residual = 4.15569e-06, No Iterations 3
smoothSolver:  Solving for Uy, Initial residual = 0.00262968, Final residual = 4.34865e-06, No Iterations 3
DICPCG:  Solving for p, Initial residual = 0.000561018, Final residual = 2.76307e-05, No Iterations 340
time step continuity errors : sum local = 1.25461e-11, global = -5.08136e-23, cumulative = -1.28322e-21
DICPCG:  Solving for p, Initial residual = 0.000402657, Final residual = 9.41082e-07, No Iterations 767
time step continuity errors : sum local = 4.10255e-13, global = 8.81295e-23, cumulative = -1.19509e-21
ExecutionTime = 485.35 s  ClockTime = 485 s

Time = 0.00096

Courant Number mean: 0.00134424 max: 0.0481834
smoothSolver:  Solving for Ux, Initial residual = 0.0024399, Final residual = 4.11248e-06, No Iterations 3
smoothSolver:  Solving for Uy, Initial residual = 0.00260155, Final residual = 4.30218e-06, No Iterations 3
DICPCG:  Solving for p, Initial residual = 0.000554915, Final residual = 2.71586e-05, No Iterations 340
time step continuity errors : sum local = 1.23349e-11, global = 7.15226e-22, cumulative = -4.79867e-22
DICPCG:  Solving for p, Initial residual = 0.000398667, Final residual = 9.83579e-07, No Iterations 766
time step continuity errors : sum local = 4.28872e-13, global = 6.30503e-22, cumulative = 1.50636e-22
ExecutionTime = 489.69 s  ClockTime = 490 s

Time = 0.00097

Courant Number mean: 0.00135078 max: 0.0481988
smoothSolver:  Solving for Ux, Initial residual = 0.00241439, Final residual = 4.07014e-06, No Iterations 3
smoothSolver:  Solving for Uy, Initial residual = 0.00257401, Final residual = 4.25668e-06, No Iterations 3
DICPCG:  Solving for p, Initial residual = 0.000548994, Final residual = 2.73728e-05, No Iterations 339
time step continuity errors : sum local = 1.24234e-11, global = 2.36154e-23, cumulative = 1.74251e-22
DICPCG:  Solving for p, Initial residual = 0.000393876, Final residual = 9.68664e-07, No Iterations 766
time step continuity errors : sum local = 4.22452e-13, global = 3.74484e-22, cumulative = 5.48735e-22
ExecutionTime = 494.03 s  ClockTime = 494 s

Time = 0.00098

Courant Number mean: 0.00135727 max: 0.048214
smoothSolver:  Solving for Ux, Initial residual = 0.00238941, Final residual = 4.02866e-06, No Iterations 3
smoothSolver:  Solving for Uy, Initial residual = 0.00254705, Final residual = 4.21212e-06, No Iterations 3
DICPCG:  Solving for p, Initial residual = 0.000543446, Final residual = 2.69328e-05, No Iterations 339
time step continuity errors : sum local = 1.22265e-11, global = -9.40416e-23, cumulative = 4.54694e-22
DICPCG:  Solving for p, Initial residual = 0.000391987, Final residual = 9.54702e-07, No Iterations 766
time step continuity errors : sum local = 4.16443e-13, global = -2.70756e-22, cumulative = 1.83937e-22
ExecutionTime = 498.37 s  ClockTime = 498 s

Time = 0.00099

Courant Number mean: 0.00136373 max: 0.0482289
smoothSolver:  Solving for Ux, Initial residual = 0.00236494, Final residual = 3.988e-06, No Iterations 3
smoothSolver:  Solving for Uy, Initial residual = 0.00252063, Final residual = 4.16849e-06, No Iterations 3
DICPCG:  Solving for p, Initial residual = 0.000537669, Final residual = 2.64794e-05, No Iterations 339
time step continuity errors : sum local = 1.20235e-11, global = 1.90308e-23, cumulative = 2.02968e-22
DICPCG:  Solving for p, Initial residual = 0.000388203, Final residual = 9.97182e-07, No Iterations 765
time step continuity errors : sum local = 4.3505e-13, global = 5.8986e-22, cumulative = 7.92828e-22
ExecutionTime = 502.71 s  ClockTime = 503 s

Time = 0.001

Courant Number mean: 0.00137014 max: 0.0482436
smoothSolver:  Solving for Ux, Initial residual = 0.00234097, Final residual = 3.94814e-06, No Iterations 3
smoothSolver:  Solving for Uy, Initial residual = 0.00249476, Final residual = 4.12574e-06, No Iterations 3
DICPCG:  Solving for p, Initial residual = 0.000532156, Final residual = 2.60434e-05, No Iterations 339
time step continuity errors : sum local = 1.18283e-11, global = 1.79943e-22, cumulative = 9.72771e-22
DICPCG:  Solving for p, Initial residual = 0.000384555, Final residual = 9.82932e-07, No Iterations 765
time step continuity errors : sum local = 4.28913e-13, global = 3.00053e-22, cumulative = 1.27282e-21
ExecutionTime = 507.05 s  ClockTime = 507 s

End

Finalising parallel run
Mon May 28 11:48:41 -03 2018
